* File: apc3d01.dist.sp
* Created: Sun Jul  4 12:03:25 2010
* Program "Calibre xRC"
* Version "v2008.4_19.14"
* 
.include "apc3d01.dist.sp.pex"
.subckt apc3d01  CIN PAD VSS AVSS AVDD AVDDO AVSSO 
* 
M7 N_CIN_M7_d N_U9_MPI1_drain_M7_g N_AVSS_M7_s N_AVSS_M7_b NHV L=3.6e-07
+ W=6e-06 AD=3.72e-12 AS=3.72e-12 PD=1.324e-05 PS=1.324e-05
M15 N_PAD_M21_d N_U14_U71_r1_M15_g N_AVSSO_M15_s N_AVSSO_M21_b NHV L=5e-07
+ W=3e-05 AD=1.008e-10 AS=2.58e-11 PD=3.672e-05 PS=3.172e-05
M16 N_PAD_M22_d N_U14_U71_r1_M16_g N_AVSSO_M16_s N_AVSSO_M21_b NHV L=5e-07
+ W=3e-05 AD=1.008e-10 AS=3.99e-11 PD=3.672e-05 PS=6.266e-05
M17 N_PAD_M23_d N_U14_U71_r1_M17_g N_AVSSO_M17_s N_AVSSO_M21_b NHV L=5e-07
+ W=3e-05 AD=1.008e-10 AS=2.58e-11 PD=3.672e-05 PS=3.172e-05
M18 N_PAD_M24_d N_U14_U71_r1_M18_g N_AVSSO_M15_s N_AVSSO_M21_b NHV L=5e-07
+ W=3e-05 AD=1.008e-10 AS=2.58e-11 PD=3.672e-05 PS=3.172e-05
M19 N_PAD_M25_d N_U14_U71_r1_M19_g N_AVSSO_M19_s N_AVSSO_M21_b NHV L=5e-07
+ W=3e-05 AD=1.008e-10 AS=3.99e-11 PD=3.672e-05 PS=6.266e-05
M20 N_PAD_M26_d N_U14_U71_r1_M20_g N_AVSSO_M17_s N_AVSSO_M21_b NHV L=5e-07
+ W=3e-05 AD=1.008e-10 AS=2.58e-11 PD=3.672e-05 PS=3.172e-05
XR8 N_U14_U71_r1_R8_pos N_AVSSO_R8_neg RNWELLSTI2T w=2.1e-06 l=8.65e-06 
M21 N_PAD_M21_d N_U14_U71_r1_M21_g N_AVSSO_M21_s N_AVSSO_M21_b NHV L=5e-07
+ W=3e-05 AD=1.008e-10 AS=2.58e-11 PD=3.672e-05 PS=3.172e-05
M22 N_PAD_M22_d N_U14_U71_r1_M22_g N_AVSSO_M21_s N_AVSSO_M21_b NHV L=5e-07
+ W=3e-05 AD=1.008e-10 AS=2.58e-11 PD=3.672e-05 PS=3.172e-05
M23 N_PAD_M23_d N_U14_U71_r1_M23_g N_AVSSO_M23_s N_AVSSO_M21_b NHV L=5e-07
+ W=3e-05 AD=1.008e-10 AS=2.58e-11 PD=3.672e-05 PS=3.172e-05
M24 N_PAD_M24_d N_U14_U71_r1_M24_g N_AVSSO_M23_s N_AVSSO_M21_b NHV L=5e-07
+ W=3e-05 AD=1.008e-10 AS=2.58e-11 PD=3.672e-05 PS=3.172e-05
M25 N_PAD_M25_d N_U14_U71_r1_M25_g N_AVSSO_M25_s N_AVSSO_M21_b NHV L=5e-07
+ W=3e-05 AD=1.008e-10 AS=2.58e-11 PD=3.672e-05 PS=3.172e-05
M26 N_PAD_M26_d N_U14_U71_r1_M26_g N_AVSSO_M25_s N_AVSSO_M21_b NHV L=5e-07
+ W=3e-05 AD=1.008e-10 AS=2.58e-11 PD=3.672e-05 PS=3.172e-05
XR11 N_PAD_R11_pos N_noxref_2_R11_neg RNMPOLY2T w=4e-06 l=2.5e-06 
XR12 N_noxref_2_R12_pos N_U14_padr_R12_neg RNMPOLY2T w=4e-06 l=2.5e-06 
M27 N_AVDDO_M27_d N_U14_pgate_tol_M27_g N_PAD_M27_s N_AVDDO_M31_b PHV L=4e-07
+ W=5.2e-05 AD=7.384e-11 AS=1.2064e-10 PD=0.00010684 PS=5.664e-05
M28 N_AVDDO_M31_d N_U14_pgate_tol_M28_g N_PAD_M27_s N_AVDDO_M31_b PHV L=4e-07
+ W=5.2e-05 AD=4.732e-11 AS=1.2064e-10 PD=5.382e-05 PS=5.664e-05
M29 N_AVDDO_M38_d N_U14_pgate_tol_M29_g N_PAD_M29_s N_AVDDO_M31_b PHV L=4e-07
+ W=5.2e-05 AD=4.732e-11 AS=1.2064e-10 PD=5.382e-05 PS=5.664e-05
M30 N_AVDDO_M30_d N_U14_pgate_tol_M30_g N_PAD_M29_s N_AVDDO_M31_b PHV L=4e-07
+ W=5.2e-05 AD=7.384e-11 AS=1.2064e-10 PD=0.00010684 PS=5.664e-05
M31 N_AVDDO_M31_d N_U14_pgate_tol_M31_g N_PAD_M31_s N_AVDDO_M31_b PHV L=4e-07
+ W=5.2e-05 AD=4.732e-11 AS=1.2064e-10 PD=5.382e-05 PS=5.664e-05
M32 N_AVDDO_M32_d N_U14_pgate_tol_M32_g N_PAD_M31_s N_AVDDO_M31_b PHV L=4e-07
+ W=5.2e-05 AD=4.732e-11 AS=1.2064e-10 PD=5.382e-05 PS=5.664e-05
M33 N_AVDDO_M32_d N_U14_pgate_tol_M33_g N_PAD_M33_s N_AVDDO_M31_b PHV L=4e-07
+ W=5.2e-05 AD=4.732e-11 AS=1.2064e-10 PD=5.382e-05 PS=5.664e-05
M34 N_AVDDO_M34_d N_U14_pgate_tol_M34_g N_PAD_M33_s N_AVDDO_M31_b PHV L=4e-07
+ W=5.2e-05 AD=4.732e-11 AS=1.2064e-10 PD=5.382e-05 PS=5.664e-05
M35 N_AVDDO_M34_d N_U14_pgate_tol_M35_g N_PAD_M35_s N_AVDDO_M31_b PHV L=4e-07
+ W=5.2e-05 AD=4.732e-11 AS=1.2064e-10 PD=5.382e-05 PS=5.664e-05
M36 N_AVDDO_M36_d N_U14_pgate_tol_M36_g N_PAD_M35_s N_AVDDO_M31_b PHV L=4e-07
+ W=5.2e-05 AD=4.732e-11 AS=1.2064e-10 PD=5.382e-05 PS=5.664e-05
M37 N_AVDDO_M36_d N_U14_pgate_tol_M37_g N_PAD_M37_s N_AVDDO_M31_b PHV L=4e-07
+ W=5.2e-05 AD=4.732e-11 AS=1.2064e-10 PD=5.382e-05 PS=5.664e-05
M38 N_AVDDO_M38_d N_U14_pgate_tol_M38_g N_PAD_M37_s N_AVDDO_M31_b PHV L=4e-07
+ W=5.2e-05 AD=4.732e-11 AS=1.2064e-10 PD=5.382e-05 PS=5.664e-05
M9 N_U14_pgate_tol_M9_s N_net_m9_AVDDO_res_M9_g N_U14_pgate_tol_M9_s
+ N_AVSSO_M9_b NHV L=3.6e-07 W=1.667e-05 AD=6.8347e-12 AS=1.03354e-11
+ PD=1.749e-05 PS=3.458e-05
M9@2 N_U14_pgate_tol_M9@2_s N_net_m9_AVDDO_res_M9@2_g N_U14_pgate_tol_M9@2_s
+ N_AVSSO_M9_b NHV L=3.6e-07 W=1.667e-05 AD=6.8347e-12 AS=6.8347e-12 PD=1.749e-05
+ PS=1.749e-05
M9@3 N_U14_pgate_tol_M9@3_s N_net_m9_AVDDO_res_M9@3_g N_U14_pgate_tol_M9@3_s
+ N_AVSSO_M9_b NHV L=3.6e-07 W=1.667e-05 AD=1.05021e-11 AS=6.8347e-12 PD=3.46e-05
+ PS=1.749e-05
M13 N_AVDDO_M13_d N_net_m13_AVDDO_res_M13_g N_U14_pgate_tol_M13_s N_AVSSO_M9_b
+ NHV L=3.6e-07 W=1e-05 AD=6.2e-12 AS=6.2e-12 PD=2.124e-05 PS=2.124e-05
M6 N_U14_padr_M6_d N_net_m6_AVSSO_res_M6_g N_AVSSO_M6_s N_AVSSO_M9_b NHV
+ L=3.6e-07 W=1e-05 AD=6.2e-12 AS=4.1e-12 PD=2.124e-05 PS=1.082e-05
M6@2 N_U14_padr_M6@2_d N_net_m6_AVSSO_res_M6@2_g N_AVSSO_M6_s N_AVSSO_M9_b NHV
+ L=3.6e-07 W=1e-05 AD=6.2e-12 AS=4.1e-12 PD=2.124e-05 PS=1.082e-05
M5 N_U9_MPI1_drain_M5_d N_U14_padr_M5_g N_AVSSO_M5_s N_AVSSO_M9_b NHV L=3.6e-07
+ W=6e-06 AD=3.72e-12 AS=3.72e-12 PD=1.324e-05 PS=1.324e-05
M14 N_U14_pgate_tol_M14_d N_net_m14_AVSSO_res_M14_g N_AVDDO_M14_s N_AVDDO_M14_b
+ PHV L=3.6e-07 W=2e-05 AD=1.24e-11 AS=1.24e-11 PD=4.124e-05 PS=4.124e-05
M3 N_U14_padr_M3_d N_net_m3_AVDDO_res_M3_g N_AVDDO_M3_s N_AVDDO_M14_b PHV
+ L=3.6e-07 W=2e-05 AD=1.24e-11 AS=1.24e-11 PD=4.124e-05 PS=4.124e-05
M1 U9_MPI2_drain N_U14_padr_M1_g N_AVDDO_M1_s N_AVDDO_M14_b PHV L=3.6e-07
+ W=2e-05 AD=4e-12 AS=1.24e-11 PD=2.04e-05 PS=4.124e-05
M2 N_U9_MPI1_drain_M2_d N_U14_padr_M2_g U9_MPI2_drain N_AVDDO_M14_b PHV
+ L=3.6e-07 W=2e-05 AD=1.24e-11 AS=4e-12 PD=4.124e-05 PS=2.04e-05
M10 N_U14_pgate_tol_M10_s N_net_m10_AVSSO_res_M10_g N_U14_pgate_tol_M10_s
+ N_AVDDO_M14_b PHV L=3.6e-07 W=1.667e-05 AD=6.8347e-12 AS=1.03354e-11
+ PD=1.749e-05 PS=3.458e-05
M10@2 N_U14_pgate_tol_M10@2_s N_net_m10_AVSSO_res_M10@2_g
+ N_U14_pgate_tol_M10@2_s N_AVDDO_M14_b PHV L=3.6e-07 W=1.667e-05 AD=6.8347e-12
+ AS=6.8347e-12 PD=1.749e-05 PS=1.749e-05
M10@3 N_U14_pgate_tol_M10@3_s N_net_m10_AVSSO_res_M10@3_g
+ N_U14_pgate_tol_M10@3_s N_AVDDO_M14_b PHV L=3.6e-07 W=1.667e-05 AD=1.05021e-11
+ AS=6.8347e-12 PD=3.46e-05 PS=1.749e-05
M4 N_CIN_M4_d N_U9_MPI1_drain_M4_g N_AVDD_M4_s N_AVDD_M4_b PHV L=3.6e-07
+ W=8e-06 AD=5.36e-12 AS=3.28e-12 PD=1.734e-05 PS=8.82e-06
M4@2 N_CIN_M4@2_d N_U9_MPI1_drain_M4@2_g N_AVDD_M4_s N_AVDD_M4_b PHV L=3.6e-07
+ W=8e-06 AD=3.28e-12 AS=3.28e-12 PD=8.82e-06 PS=8.82e-06
M4@3 N_CIN_M4@2_d N_U9_MPI1_drain_M4@3_g N_AVDD_M4@3_s N_AVDD_M4_b PHV
+ L=3.6e-07 W=8e-06 AD=3.28e-12 AS=3.28e-12 PD=8.82e-06 PS=8.82e-06
M4@4 N_CIN_M4@4_d N_U9_MPI1_drain_M4@4_g N_AVDD_M4@3_s N_AVDD_M4_b PHV
+ L=3.6e-07 W=8e-06 AD=4.96e-12 AS=3.28e-12 PD=1.724e-05 PS=8.82e-06
D40@2 N_VSS_D40@2_pos N_AVSSO_D40@2_neg DPH  AREA=1.331e-11 PJ=2.862e-05
D40@3 N_VSS_D40@3_pos N_AVSSO_D40@2_neg DPH  AREA=1.331e-11 PJ=2.862e-05
D40@4 N_VSS_D40@4_pos N_AVSSO_D40@2_neg DPH  AREA=1.331e-11 PJ=2.862e-05
D40@5 N_VSS_D40@5_pos N_AVSSO_D40@2_neg DPH  AREA=1.331e-11 PJ=2.862e-05
D40@6 N_VSS_D40@6_pos N_AVSSO_D40@2_neg DPH  AREA=1.331e-11 PJ=2.862e-05
D40@7 N_VSS_D40@7_pos N_AVSSO_D40@2_neg DPH  AREA=1.331e-11 PJ=2.862e-05
D40 N_VSS_D40_pos N_AVSSO_D40@2_neg DPH  AREA=1.331e-11 PJ=2.862e-05
D39@2 N_AVSSO_D39@2_pos N_VSS_D39@2_neg DPH  AREA=1.331e-11 PJ=2.862e-05
D39@3 N_AVSSO_D39@3_pos N_VSS_D39@2_neg DPH  AREA=1.331e-11 PJ=2.862e-05
D39@4 N_AVSSO_D39@4_pos N_VSS_D39@2_neg DPH  AREA=1.331e-11 PJ=2.862e-05
D39@5 N_AVSSO_D39@5_pos N_VSS_D39@2_neg DPH  AREA=1.331e-11 PJ=2.862e-05
D39@6 N_AVSSO_D39@6_pos N_VSS_D39@2_neg DPH  AREA=1.331e-11 PJ=2.862e-05
D39@7 N_AVSSO_D39@7_pos N_VSS_D39@2_neg DPH  AREA=1.331e-11 PJ=2.862e-05
D39 N_AVSSO_D39_pos N_VSS_D39@2_neg DPH  AREA=1.331e-11 PJ=2.862e-05
XRM14 N_AVSSO_RM14_pos N_net_m14_AVSSO_res_RM14_neg RPMPOLY2T w=2e-06
+ l=6.455e-06 
XRM3 N_net_m3_AVDDO_res_RM3_pos N_AVDDO_RM3_neg RPMPOLY2T w=2e-06 l=6.455e-06 
XRM10 N_AVSSO_RM10_pos N_net_m10_AVSSO_res_RM10_neg RPMPOLY2T w=2e-06
+ l=6.455e-06 
XRM9 N_AVDDO_RM9_pos N_net_m9_AVDDO_res_RM9_neg RPMPOLY2T w=2e-06 l=6.455e-06 
XRM13 N_net_m13_AVDDO_res_RM13_pos N_AVDDO_RM9_pos RPMPOLY2T w=2e-06
+ l=6.455e-06 
XRM6 N_net_m6_AVSSO_res_RM6_pos N_AVSSO_RM6_neg RPMPOLY2T w=2e-06 l=6.455e-06 
c_1 U9_MPI2_drain 0 0.0183971f
*
.include "apc3d01.dist.sp.APC3D01.pxi"
*
.ends
*
*
* File: apv0a.dist.sp
* Created: Sun Jul  4 12:04:04 2010
* Program "Calibre xRC"
* Version "v2008.4_19.14"
* 
.include "apv0a.dist.sp.pex"
.subckt apv0a  AVSSO VSS AVSS AVDD AVDDO 
* 
M4 N_AVDDO_M10_d N_U31_U29_c2_M4_g N_AVSSO_M4_s N_AVSSO_M10_b NHV L=4e-07
+ W=3e-05 AD=1.038e-10 AS=2.58e-11 PD=3.692e-05 PS=3.172e-05
M5 N_AVDDO_M11_d N_U31_U29_c2_M5_g N_AVSSO_M5_s N_AVSSO_M10_b NHV L=4e-07
+ W=3e-05 AD=1.038e-10 AS=3.99e-11 PD=3.692e-05 PS=6.266e-05
M6 N_AVDDO_M12_d N_U31_U29_c2_M6_g N_AVSSO_M6_s N_AVSSO_M10_b NHV L=4e-07
+ W=3e-05 AD=1.038e-10 AS=2.58e-11 PD=3.692e-05 PS=3.172e-05
M7 N_AVDDO_M13_d N_U31_U29_c2_M7_g N_AVSSO_M4_s N_AVSSO_M10_b NHV L=4e-07
+ W=3e-05 AD=1.038e-10 AS=2.58e-11 PD=3.692e-05 PS=3.172e-05
M8 N_AVDDO_M14_d N_U31_U29_c2_M8_g N_AVSSO_M8_s N_AVSSO_M10_b NHV L=4e-07
+ W=3e-05 AD=1.038e-10 AS=3.99e-11 PD=3.692e-05 PS=6.266e-05
M9 N_AVDDO_M15_d N_U31_U29_c2_M9_g N_AVSSO_M6_s N_AVSSO_M10_b NHV L=4e-07
+ W=3e-05 AD=1.038e-10 AS=2.58e-11 PD=3.692e-05 PS=3.172e-05
XR16 N_AVDDO_R16_pos N_noxref_3_R16_neg RNWELLSTI2T w=2.1e-06 l=1.46e-05 
XR17 N_noxref_3_R17_pos N_U19_U31_r2_R17_neg RNWELLSTI2T w=2.1e-06 l=1.46e-05 
XR2 N_U31_U29_c2_R2_pos N_noxref_5_R2_neg RNWELLSTI2T w=2.1e-06 l=1.46e-05 
XR3 N_noxref_5_R3_pos N_AVSSO_R3_neg RNWELLSTI2T w=2.1e-06 l=1.46e-05 
M10 N_AVDDO_M10_d N_U31_U29_c2_M10_g N_AVSSO_M10_s N_AVSSO_M10_b NHV L=4e-07
+ W=3e-05 AD=1.038e-10 AS=2.58e-11 PD=3.692e-05 PS=3.172e-05
M11 N_AVDDO_M11_d N_U31_U29_c2_M11_g N_AVSSO_M10_s N_AVSSO_M10_b NHV L=4e-07
+ W=3e-05 AD=1.038e-10 AS=2.58e-11 PD=3.692e-05 PS=3.172e-05
M12 N_AVDDO_M12_d N_U31_U29_c2_M12_g N_AVSSO_M12_s N_AVSSO_M10_b NHV L=4e-07
+ W=3e-05 AD=1.038e-10 AS=2.58e-11 PD=3.692e-05 PS=3.172e-05
M13 N_AVDDO_M13_d N_U31_U29_c2_M13_g N_AVSSO_M12_s N_AVSSO_M10_b NHV L=4e-07
+ W=3e-05 AD=1.038e-10 AS=2.58e-11 PD=3.692e-05 PS=3.172e-05
M14 N_AVDDO_M14_d N_U31_U29_c2_M14_g N_AVSSO_M14_s N_AVSSO_M10_b NHV L=4e-07
+ W=3e-05 AD=1.038e-10 AS=2.58e-11 PD=3.692e-05 PS=3.172e-05
M15 N_AVDDO_M15_d N_U31_U29_c2_M15_g N_AVSSO_M14_s N_AVSSO_M10_b NHV L=4e-07
+ W=3e-05 AD=1.038e-10 AS=2.58e-11 PD=3.692e-05 PS=3.172e-05
M18 N_AVSSO_M18_d N_U19_U31_r2_M18_g N_AVDDO_M18_s N_AVDDO_M18_b PHV L=4e-07
+ W=4e-05 AD=9.28e-11 AS=5.68e-11 PD=4.464e-05 PS=8.284e-05
M19 N_AVSSO_M18_d N_U19_U31_r2_M19_g N_AVDDO_M19_s N_AVDDO_M18_b PHV L=4e-07
+ W=4e-05 AD=9.28e-11 AS=3.64e-11 PD=4.464e-05 PS=4.182e-05
M20 N_AVSSO_M20_d N_U19_U31_r2_M20_g N_AVDDO_M19_s N_AVDDO_M18_b PHV L=4e-07
+ W=4e-05 AD=9.28e-11 AS=3.64e-11 PD=4.464e-05 PS=4.182e-05
M21 N_AVSSO_M20_d N_U19_U31_r2_M21_g N_AVDDO_M21_s N_AVDDO_M18_b PHV L=4e-07
+ W=4e-05 AD=9.28e-11 AS=3.64e-11 PD=4.464e-05 PS=4.182e-05
M22 N_AVSSO_M22_d N_U19_U31_r2_M22_g N_AVDDO_M21_s N_AVDDO_M18_b PHV L=4e-07
+ W=4e-05 AD=9.28e-11 AS=3.64e-11 PD=4.464e-05 PS=4.182e-05
M23 N_AVSSO_M22_d N_U19_U31_r2_M23_g N_AVDDO_M23_s N_AVDDO_M18_b PHV L=4e-07
+ W=4e-05 AD=9.28e-11 AS=3.64e-11 PD=4.464e-05 PS=4.182e-05
M24 N_AVSSO_M24_d N_U19_U31_r2_M24_g N_AVDDO_M23_s N_AVDDO_M18_b PHV L=4e-07
+ W=4e-05 AD=9.28e-11 AS=3.64e-11 PD=4.464e-05 PS=4.182e-05
M25 N_AVSSO_M24_d N_U19_U31_r2_M25_g N_AVDDO_M25_s N_AVDDO_M18_b PHV L=4e-07
+ W=4e-05 AD=9.28e-11 AS=3.64e-11 PD=4.464e-05 PS=4.182e-05
M26 N_AVSSO_M26_d N_U19_U31_r2_M26_g N_AVDDO_M25_s N_AVDDO_M18_b PHV L=4e-07
+ W=4e-05 AD=9.28e-11 AS=3.64e-11 PD=4.464e-05 PS=4.182e-05
M27 N_AVSSO_M26_d N_U19_U31_r2_M27_g N_AVDDO_M27_s N_AVDDO_M18_b PHV L=4e-07
+ W=4e-05 AD=9.28e-11 AS=3.64e-11 PD=4.464e-05 PS=4.182e-05
M28 N_AVSSO_M28_d N_U19_U31_r2_M28_g N_AVDDO_M27_s N_AVDDO_M18_b PHV L=4e-07
+ W=4e-05 AD=9.28e-11 AS=3.64e-11 PD=4.464e-05 PS=4.182e-05
M29 N_AVSSO_M28_d N_U19_U31_r2_M29_g N_AVDDO_M29_s N_AVDDO_M18_b PHV L=4e-07
+ W=4e-05 AD=9.28e-11 AS=5.68e-11 PD=4.464e-05 PS=8.284e-05
D30@2 N_AVSSO_D30@2_pos N_VSS_D30@2_neg DPH  AREA=1.331e-11 PJ=2.862e-05
D30@3 N_AVSSO_D30@3_pos N_VSS_D30@2_neg DPH  AREA=1.331e-11 PJ=2.862e-05
D30@4 N_AVSSO_D30@4_pos N_VSS_D30@2_neg DPH  AREA=1.331e-11 PJ=2.862e-05
D30@5 N_AVSSO_D30@5_pos N_VSS_D30@2_neg DPH  AREA=1.331e-11 PJ=2.862e-05
D30@6 N_AVSSO_D30@6_pos N_VSS_D30@2_neg DPH  AREA=1.331e-11 PJ=2.862e-05
D30@7 N_AVSSO_D30@7_pos N_VSS_D30@2_neg DPH  AREA=1.331e-11 PJ=2.862e-05
D30@8 N_AVSSO_D30@8_pos N_VSS_D30@2_neg DPH  AREA=1.331e-11 PJ=2.862e-05
D30@9 N_AVSSO_D30@9_pos N_VSS_D30@2_neg DPH  AREA=1.331e-11 PJ=2.862e-05
D30 N_AVSSO_D30_pos N_VSS_D30@2_neg DPH  AREA=1.331e-11 PJ=2.862e-05
D31@2 N_VSS_D31@2_pos N_AVSSO_D31@2_neg DPH  AREA=1.331e-11 PJ=2.862e-05
D31@3 N_VSS_D31@3_pos N_AVSSO_D31@2_neg DPH  AREA=1.331e-11 PJ=2.862e-05
D31@4 N_VSS_D31@4_pos N_AVSSO_D31@2_neg DPH  AREA=1.331e-11 PJ=2.862e-05
D31@5 N_VSS_D31@5_pos N_AVSSO_D31@2_neg DPH  AREA=1.331e-11 PJ=2.862e-05
D31@6 N_VSS_D31@6_pos N_AVSSO_D31@2_neg DPH  AREA=1.331e-11 PJ=2.862e-05
D31@7 N_VSS_D31@7_pos N_AVSSO_D31@2_neg DPH  AREA=1.331e-11 PJ=2.862e-05
D31@8 N_VSS_D31@8_pos N_AVSSO_D31@2_neg DPH  AREA=1.331e-11 PJ=2.862e-05
D31@9 N_VSS_D31@9_pos N_AVSSO_D31@2_neg DPH  AREA=1.331e-11 PJ=2.862e-05
D31 N_VSS_D31_pos N_AVSSO_D31@2_neg DPH  AREA=1.331e-11 PJ=2.862e-05
XC6_7 N_AVDDO_C6_7_pos N_U31_U29_c2_C6_7_neg NWCAPH2T  L=1.513e-05 W=1.513e-05
*
.include "apv0a.dist.sp.APV0A.pxi"
*
.ends
*
*
* File: apv0i.dist.sp
* Created: Sun Jul  4 12:05:08 2010
* Program "Calibre xRC"
* Version "v2008.4_19.14"
* 
.include "apv0i.dist.sp.pex"
.subckt apv0i  AVSS VSS AVDD AVDDO AVSSO 
* 
M18 N_AVDD_M24_d N_U38_U18_r1_M18_g N_AVSS_M18_s N_AVSS_M24_b N18 L=2.5e-07
+ W=3e-05 AD=1.083e-10 AS=2.58e-11 PD=3.722e-05 PS=3.172e-05
M19 N_AVDD_M25_d N_U38_U18_r1_M19_g N_AVSS_M19_s N_AVSS_M24_b N18 L=2.5e-07
+ W=3e-05 AD=1.083e-10 AS=3.99e-11 PD=3.722e-05 PS=6.266e-05
M20 N_AVDD_M26_d N_U38_U18_r1_M20_g N_AVSS_M20_s N_AVSS_M24_b N18 L=2.5e-07
+ W=3e-05 AD=1.083e-10 AS=2.58e-11 PD=3.722e-05 PS=3.172e-05
M21 N_AVDD_M27_d N_U38_U18_r1_M21_g N_AVSS_M18_s N_AVSS_M24_b N18 L=2.5e-07
+ W=3e-05 AD=1.083e-10 AS=2.58e-11 PD=3.722e-05 PS=3.172e-05
M22 N_AVDD_M28_d N_U38_U18_r1_M22_g N_AVSS_M22_s N_AVSS_M24_b N18 L=2.5e-07
+ W=3e-05 AD=1.083e-10 AS=3.99e-11 PD=3.722e-05 PS=6.266e-05
M23 N_AVDD_M29_d N_U38_U18_r1_M23_g N_AVSS_M20_s N_AVSS_M24_b N18 L=2.5e-07
+ W=3e-05 AD=1.083e-10 AS=2.58e-11 PD=3.722e-05 PS=3.172e-05
XR1 N_AVDD_R1_pos N_noxref_3_R1_neg RNWELLSTI2T w=2.1e-06 l=1.46e-05 
XR2 N_noxref_3_R2_pos N_U39_U31_r2_R2_neg RNWELLSTI2T w=2.1e-06 l=1.46e-05 
XR15 N_U38_U18_r1_R15_pos N_noxref_5_R15_neg RNWELLSTI2T w=2.1e-06 l=1.46e-05 
XR16 N_noxref_5_R16_pos N_AVSS_R16_neg RNWELLSTI2T w=2.1e-06 l=1.46e-05 
M24 N_AVDD_M24_d N_U38_U18_r1_M24_g N_AVSS_M24_s N_AVSS_M24_b N18 L=2.5e-07
+ W=3e-05 AD=1.083e-10 AS=2.58e-11 PD=3.722e-05 PS=3.172e-05
M25 N_AVDD_M25_d N_U38_U18_r1_M25_g N_AVSS_M24_s N_AVSS_M24_b N18 L=2.5e-07
+ W=3e-05 AD=1.083e-10 AS=2.58e-11 PD=3.722e-05 PS=3.172e-05
M26 N_AVDD_M26_d N_U38_U18_r1_M26_g N_AVSS_M26_s N_AVSS_M24_b N18 L=2.5e-07
+ W=3e-05 AD=1.083e-10 AS=2.58e-11 PD=3.722e-05 PS=3.172e-05
M27 N_AVDD_M27_d N_U38_U18_r1_M27_g N_AVSS_M26_s N_AVSS_M24_b N18 L=2.5e-07
+ W=3e-05 AD=1.083e-10 AS=2.58e-11 PD=3.722e-05 PS=3.172e-05
M28 N_AVDD_M28_d N_U38_U18_r1_M28_g N_AVSS_M28_s N_AVSS_M24_b N18 L=2.5e-07
+ W=3e-05 AD=1.083e-10 AS=2.58e-11 PD=3.722e-05 PS=3.172e-05
M29 N_AVDD_M29_d N_U38_U18_r1_M29_g N_AVSS_M28_s N_AVSS_M24_b N18 L=2.5e-07
+ W=3e-05 AD=1.083e-10 AS=2.58e-11 PD=3.722e-05 PS=3.172e-05
M3 N_AVSS_M3_d N_U39_U31_r2_M3_g N_AVDD_M3_s N_AVDD_M3_b P18 L=2.5e-07 W=4e-05
+ AD=9.88e-11 AS=5.68e-11 PD=4.494e-05 PS=8.284e-05
M4 N_AVSS_M3_d N_U39_U31_r2_M4_g N_AVDD_M4_s N_AVDD_M3_b P18 L=2.5e-07 W=4e-05
+ AD=9.88e-11 AS=3.64e-11 PD=4.494e-05 PS=4.182e-05
M5 N_AVSS_M5_d N_U39_U31_r2_M5_g N_AVDD_M4_s N_AVDD_M3_b P18 L=2.5e-07 W=4e-05
+ AD=9.88e-11 AS=3.64e-11 PD=4.494e-05 PS=4.182e-05
M6 N_AVSS_M5_d N_U39_U31_r2_M6_g N_AVDD_M6_s N_AVDD_M3_b P18 L=2.5e-07 W=4e-05
+ AD=9.88e-11 AS=3.64e-11 PD=4.494e-05 PS=4.182e-05
M7 N_AVSS_M7_d N_U39_U31_r2_M7_g N_AVDD_M6_s N_AVDD_M3_b P18 L=2.5e-07 W=4e-05
+ AD=9.88e-11 AS=3.64e-11 PD=4.494e-05 PS=4.182e-05
M8 N_AVSS_M7_d N_U39_U31_r2_M8_g N_AVDD_M8_s N_AVDD_M3_b P18 L=2.5e-07 W=4e-05
+ AD=9.88e-11 AS=3.64e-11 PD=4.494e-05 PS=4.182e-05
M9 N_AVSS_M9_d N_U39_U31_r2_M9_g N_AVDD_M8_s N_AVDD_M3_b P18 L=2.5e-07 W=4e-05
+ AD=9.88e-11 AS=3.64e-11 PD=4.494e-05 PS=4.182e-05
M10 N_AVSS_M9_d N_U39_U31_r2_M10_g N_AVDD_M10_s N_AVDD_M3_b P18 L=2.5e-07
+ W=4e-05 AD=9.88e-11 AS=3.64e-11 PD=4.494e-05 PS=4.182e-05
M11 N_AVSS_M11_d N_U39_U31_r2_M11_g N_AVDD_M10_s N_AVDD_M3_b P18 L=2.5e-07
+ W=4e-05 AD=9.88e-11 AS=3.64e-11 PD=4.494e-05 PS=4.182e-05
M12 N_AVSS_M11_d N_U39_U31_r2_M12_g N_AVDD_M12_s N_AVDD_M3_b P18 L=2.5e-07
+ W=4e-05 AD=9.88e-11 AS=3.64e-11 PD=4.494e-05 PS=4.182e-05
M13 N_AVSS_M13_d N_U39_U31_r2_M13_g N_AVDD_M12_s N_AVDD_M3_b P18 L=2.5e-07
+ W=4e-05 AD=9.88e-11 AS=3.64e-11 PD=4.494e-05 PS=4.182e-05
M14 N_AVSS_M13_d N_U39_U31_r2_M14_g N_AVDD_M14_s N_AVDD_M3_b P18 L=2.5e-07
+ W=4e-05 AD=9.88e-11 AS=5.68e-11 PD=4.494e-05 PS=8.284e-05
D31@2 N_AVSS_D31@2_pos N_VSS_D31@2_neg DPH  AREA=1.331e-11 PJ=2.862e-05
D31@3 N_AVSS_D31@3_pos N_VSS_D31@2_neg DPH  AREA=1.331e-11 PJ=2.862e-05
D31@4 N_AVSS_D31@4_pos N_VSS_D31@2_neg DPH  AREA=1.331e-11 PJ=2.862e-05
D31@5 N_AVSS_D31@5_pos N_VSS_D31@2_neg DPH  AREA=1.331e-11 PJ=2.862e-05
D31@6 N_AVSS_D31@6_pos N_VSS_D31@2_neg DPH  AREA=1.331e-11 PJ=2.862e-05
D31@7 N_AVSS_D31@7_pos N_VSS_D31@2_neg DPH  AREA=1.331e-11 PJ=2.862e-05
D31@8 N_AVSS_D31@8_pos N_VSS_D31@2_neg DPH  AREA=1.331e-11 PJ=2.862e-05
D31@9 N_AVSS_D31@9_pos N_VSS_D31@2_neg DPH  AREA=1.331e-11 PJ=2.862e-05
D31 N_AVSS_D31_pos N_VSS_D31@2_neg DPH  AREA=1.331e-11 PJ=2.862e-05
D30@2 N_VSS_D30@2_pos N_AVSS_D30@2_neg DPH  AREA=1.331e-11 PJ=2.862e-05
D30@3 N_VSS_D30@3_pos N_AVSS_D30@2_neg DPH  AREA=1.331e-11 PJ=2.862e-05
D30@4 N_VSS_D30@4_pos N_AVSS_D30@2_neg DPH  AREA=1.331e-11 PJ=2.862e-05
D30@5 N_VSS_D30@5_pos N_AVSS_D30@2_neg DPH  AREA=1.331e-11 PJ=2.862e-05
D30@6 N_VSS_D30@6_pos N_AVSS_D30@2_neg DPH  AREA=1.331e-11 PJ=2.862e-05
D30@7 N_VSS_D30@7_pos N_AVSS_D30@2_neg DPH  AREA=1.331e-11 PJ=2.862e-05
D30@8 N_VSS_D30@8_pos N_AVSS_D30@2_neg DPH  AREA=1.331e-11 PJ=2.862e-05
D30@9 N_VSS_D30@9_pos N_AVSS_D30@2_neg DPH  AREA=1.331e-11 PJ=2.862e-05
D30 N_VSS_D30_pos N_AVSS_D30@2_neg DPH  AREA=1.331e-11 PJ=2.862e-05
XC4_10 N_AVDD_C4_10_pos N_U38_U18_r1_C4_10_neg NWCAPH2T  L=1.513e-05
+ W=1.513e-05
*
.include "apv0i.dist.sp.APV0I.pxi"
*
.ends
*
*
* File: apvda.dist.sp
* Created: Sun Jul  4 12:05:05 2010
* Program "Calibre xRC"
* Version "v2008.4_19.14"
* 
.include "apvda.dist.sp.pex"
.subckt apvda  AVDDO VSS AVSS AVDD AVSSO 
* 
M4 N_AVDDO_M10_d N_U30_U29_c2_M4_g N_AVSSO_M4_s N_AVSSO_M10_b NHV L=4e-07
+ W=3e-05 AD=1.038e-10 AS=2.58e-11 PD=3.692e-05 PS=3.172e-05
M5 N_AVDDO_M11_d N_U30_U29_c2_M5_g N_AVSSO_M5_s N_AVSSO_M10_b NHV L=4e-07
+ W=3e-05 AD=1.038e-10 AS=3.99e-11 PD=3.692e-05 PS=6.266e-05
M6 N_AVDDO_M12_d N_U30_U29_c2_M6_g N_AVSSO_M6_s N_AVSSO_M10_b NHV L=4e-07
+ W=3e-05 AD=1.038e-10 AS=2.58e-11 PD=3.692e-05 PS=3.172e-05
M7 N_AVDDO_M13_d N_U30_U29_c2_M7_g N_AVSSO_M4_s N_AVSSO_M10_b NHV L=4e-07
+ W=3e-05 AD=1.038e-10 AS=2.58e-11 PD=3.692e-05 PS=3.172e-05
M8 N_AVDDO_M14_d N_U30_U29_c2_M8_g N_AVSSO_M8_s N_AVSSO_M10_b NHV L=4e-07
+ W=3e-05 AD=1.038e-10 AS=3.99e-11 PD=3.692e-05 PS=6.266e-05
M9 N_AVDDO_M15_d N_U30_U29_c2_M9_g N_AVSSO_M6_s N_AVSSO_M10_b NHV L=4e-07
+ W=3e-05 AD=1.038e-10 AS=2.58e-11 PD=3.692e-05 PS=3.172e-05
XR16 N_AVDDO_R16_pos N_noxref_3_R16_neg RNWELLSTI2T w=2.1e-06 l=1.46e-05 
XR17 N_noxref_3_R17_pos N_U19_U31_r2_R17_neg RNWELLSTI2T w=2.1e-06 l=1.46e-05 
XR2 N_U30_U29_c2_R2_pos N_noxref_5_R2_neg RNWELLSTI2T w=2.1e-06 l=1.46e-05 
XR3 N_noxref_5_R3_pos N_AVSSO_R3_neg RNWELLSTI2T w=2.1e-06 l=1.46e-05 
M10 N_AVDDO_M10_d N_U30_U29_c2_M10_g N_AVSSO_M10_s N_AVSSO_M10_b NHV L=4e-07
+ W=3e-05 AD=1.038e-10 AS=2.58e-11 PD=3.692e-05 PS=3.172e-05
M11 N_AVDDO_M11_d N_U30_U29_c2_M11_g N_AVSSO_M10_s N_AVSSO_M10_b NHV L=4e-07
+ W=3e-05 AD=1.038e-10 AS=2.58e-11 PD=3.692e-05 PS=3.172e-05
M12 N_AVDDO_M12_d N_U30_U29_c2_M12_g N_AVSSO_M12_s N_AVSSO_M10_b NHV L=4e-07
+ W=3e-05 AD=1.038e-10 AS=2.58e-11 PD=3.692e-05 PS=3.172e-05
M13 N_AVDDO_M13_d N_U30_U29_c2_M13_g N_AVSSO_M12_s N_AVSSO_M10_b NHV L=4e-07
+ W=3e-05 AD=1.038e-10 AS=2.58e-11 PD=3.692e-05 PS=3.172e-05
M14 N_AVDDO_M14_d N_U30_U29_c2_M14_g N_AVSSO_M14_s N_AVSSO_M10_b NHV L=4e-07
+ W=3e-05 AD=1.038e-10 AS=2.58e-11 PD=3.692e-05 PS=3.172e-05
M15 N_AVDDO_M15_d N_U30_U29_c2_M15_g N_AVSSO_M14_s N_AVSSO_M10_b NHV L=4e-07
+ W=3e-05 AD=1.038e-10 AS=2.58e-11 PD=3.692e-05 PS=3.172e-05
M18 N_AVSSO_M18_d N_U19_U31_r2_M18_g N_AVDDO_M18_s N_AVDDO_M18_b PHV L=4e-07
+ W=4e-05 AD=9.28e-11 AS=5.68e-11 PD=4.464e-05 PS=8.284e-05
M19 N_AVSSO_M18_d N_U19_U31_r2_M19_g N_AVDDO_M19_s N_AVDDO_M18_b PHV L=4e-07
+ W=4e-05 AD=9.28e-11 AS=3.64e-11 PD=4.464e-05 PS=4.182e-05
M20 N_AVSSO_M20_d N_U19_U31_r2_M20_g N_AVDDO_M19_s N_AVDDO_M18_b PHV L=4e-07
+ W=4e-05 AD=9.28e-11 AS=3.64e-11 PD=4.464e-05 PS=4.182e-05
M21 N_AVSSO_M20_d N_U19_U31_r2_M21_g N_AVDDO_M21_s N_AVDDO_M18_b PHV L=4e-07
+ W=4e-05 AD=9.28e-11 AS=3.64e-11 PD=4.464e-05 PS=4.182e-05
M22 N_AVSSO_M22_d N_U19_U31_r2_M22_g N_AVDDO_M21_s N_AVDDO_M18_b PHV L=4e-07
+ W=4e-05 AD=9.28e-11 AS=3.64e-11 PD=4.464e-05 PS=4.182e-05
M23 N_AVSSO_M22_d N_U19_U31_r2_M23_g N_AVDDO_M23_s N_AVDDO_M18_b PHV L=4e-07
+ W=4e-05 AD=9.28e-11 AS=3.64e-11 PD=4.464e-05 PS=4.182e-05
M24 N_AVSSO_M24_d N_U19_U31_r2_M24_g N_AVDDO_M23_s N_AVDDO_M18_b PHV L=4e-07
+ W=4e-05 AD=9.28e-11 AS=3.64e-11 PD=4.464e-05 PS=4.182e-05
M25 N_AVSSO_M24_d N_U19_U31_r2_M25_g N_AVDDO_M25_s N_AVDDO_M18_b PHV L=4e-07
+ W=4e-05 AD=9.28e-11 AS=3.64e-11 PD=4.464e-05 PS=4.182e-05
M26 N_AVSSO_M26_d N_U19_U31_r2_M26_g N_AVDDO_M25_s N_AVDDO_M18_b PHV L=4e-07
+ W=4e-05 AD=9.28e-11 AS=3.64e-11 PD=4.464e-05 PS=4.182e-05
M27 N_AVSSO_M26_d N_U19_U31_r2_M27_g N_AVDDO_M27_s N_AVDDO_M18_b PHV L=4e-07
+ W=4e-05 AD=9.28e-11 AS=3.64e-11 PD=4.464e-05 PS=4.182e-05
M28 N_AVSSO_M28_d N_U19_U31_r2_M28_g N_AVDDO_M27_s N_AVDDO_M18_b PHV L=4e-07
+ W=4e-05 AD=9.28e-11 AS=3.64e-11 PD=4.464e-05 PS=4.182e-05
M29 N_AVSSO_M28_d N_U19_U31_r2_M29_g N_AVDDO_M29_s N_AVDDO_M18_b PHV L=4e-07
+ W=4e-05 AD=9.28e-11 AS=5.68e-11 PD=4.464e-05 PS=8.284e-05
D30@2 N_AVSSO_D30@2_pos N_VSS_D30@2_neg DPH  AREA=1.331e-11 PJ=2.862e-05
D30@3 N_AVSSO_D30@3_pos N_VSS_D30@2_neg DPH  AREA=1.331e-11 PJ=2.862e-05
D30@4 N_AVSSO_D30@4_pos N_VSS_D30@2_neg DPH  AREA=1.331e-11 PJ=2.862e-05
D30@5 N_AVSSO_D30@5_pos N_VSS_D30@2_neg DPH  AREA=1.331e-11 PJ=2.862e-05
D30@6 N_AVSSO_D30@6_pos N_VSS_D30@2_neg DPH  AREA=1.331e-11 PJ=2.862e-05
D30@7 N_AVSSO_D30@7_pos N_VSS_D30@2_neg DPH  AREA=1.331e-11 PJ=2.862e-05
D30@8 N_AVSSO_D30@8_pos N_VSS_D30@2_neg DPH  AREA=1.331e-11 PJ=2.862e-05
D30@9 N_AVSSO_D30@9_pos N_VSS_D30@2_neg DPH  AREA=1.331e-11 PJ=2.862e-05
D30 N_AVSSO_D30_pos N_VSS_D30@2_neg DPH  AREA=1.331e-11 PJ=2.862e-05
D31@2 N_VSS_D31@2_pos N_AVSSO_D31@2_neg DPH  AREA=1.331e-11 PJ=2.862e-05
D31@3 N_VSS_D31@3_pos N_AVSSO_D31@2_neg DPH  AREA=1.331e-11 PJ=2.862e-05
D31@4 N_VSS_D31@4_pos N_AVSSO_D31@2_neg DPH  AREA=1.331e-11 PJ=2.862e-05
D31@5 N_VSS_D31@5_pos N_AVSSO_D31@2_neg DPH  AREA=1.331e-11 PJ=2.862e-05
D31@6 N_VSS_D31@6_pos N_AVSSO_D31@2_neg DPH  AREA=1.331e-11 PJ=2.862e-05
D31@7 N_VSS_D31@7_pos N_AVSSO_D31@2_neg DPH  AREA=1.331e-11 PJ=2.862e-05
D31@8 N_VSS_D31@8_pos N_AVSSO_D31@2_neg DPH  AREA=1.331e-11 PJ=2.862e-05
D31@9 N_VSS_D31@9_pos N_AVSSO_D31@2_neg DPH  AREA=1.331e-11 PJ=2.862e-05
D31 N_VSS_D31_pos N_AVSSO_D31@2_neg DPH  AREA=1.331e-11 PJ=2.862e-05
XC3_7 N_AVDDO_C3_7_pos N_U30_U29_c2_C3_7_neg NWCAPH2T  L=1.513e-05 W=1.513e-05
*
.include "apvda.dist.sp.APVDA.pxi"
*
.ends
*
*
* File: apvdi.dist.sp
* Created: Sun Jul  4 12:06:27 2010
* Program "Calibre xRC"
* Version "v2008.4_19.14"
* 
.include "apvdi.dist.sp.pex"
.subckt apvdi  AVDD VSS AVSS AVDDO AVSSO 
* 
M18 N_AVDD_M24_d N_U33_U18_r1_M18_g N_AVSSO_M18_s N_AVSSO_M24_b N18 L=2.5e-07
+ W=3e-05 AD=1.083e-10 AS=2.58e-11 PD=3.722e-05 PS=3.172e-05
M19 N_AVDD_M25_d N_U33_U18_r1_M19_g N_AVSSO_M19_s N_AVSSO_M24_b N18 L=2.5e-07
+ W=3e-05 AD=1.083e-10 AS=3.99e-11 PD=3.722e-05 PS=6.266e-05
M20 N_AVDD_M26_d N_U33_U18_r1_M20_g N_AVSSO_M20_s N_AVSSO_M24_b N18 L=2.5e-07
+ W=3e-05 AD=1.083e-10 AS=2.58e-11 PD=3.722e-05 PS=3.172e-05
M21 N_AVDD_M27_d N_U33_U18_r1_M21_g N_AVSSO_M18_s N_AVSSO_M24_b N18 L=2.5e-07
+ W=3e-05 AD=1.083e-10 AS=2.58e-11 PD=3.722e-05 PS=3.172e-05
M22 N_AVDD_M28_d N_U33_U18_r1_M22_g N_AVSSO_M22_s N_AVSSO_M24_b N18 L=2.5e-07
+ W=3e-05 AD=1.083e-10 AS=3.99e-11 PD=3.722e-05 PS=6.266e-05
M23 N_AVDD_M29_d N_U33_U18_r1_M23_g N_AVSSO_M20_s N_AVSSO_M24_b N18 L=2.5e-07
+ W=3e-05 AD=1.083e-10 AS=2.58e-11 PD=3.722e-05 PS=3.172e-05
XR1 N_AVDD_R1_pos N_noxref_3_R1_neg RNWELLSTI2T w=2.1e-06 l=1.46e-05 
XR2 N_noxref_3_R2_pos N_U34_U31_r2_R2_neg RNWELLSTI2T w=2.1e-06 l=1.46e-05 
XR15 N_U33_U18_r1_R15_pos N_noxref_5_R15_neg RNWELLSTI2T w=2.1e-06 l=1.46e-05 
XR16 N_noxref_5_R16_pos N_AVSS_R16_neg RNWELLSTI2T w=2.1e-06 l=1.46e-05 
M24 N_AVDD_M24_d N_U33_U18_r1_M24_g N_AVSSO_M24_s N_AVSSO_M24_b N18 L=2.5e-07
+ W=3e-05 AD=1.083e-10 AS=2.58e-11 PD=3.722e-05 PS=3.172e-05
M25 N_AVDD_M25_d N_U33_U18_r1_M25_g N_AVSSO_M24_s N_AVSSO_M24_b N18 L=2.5e-07
+ W=3e-05 AD=1.083e-10 AS=2.58e-11 PD=3.722e-05 PS=3.172e-05
M26 N_AVDD_M26_d N_U33_U18_r1_M26_g N_AVSSO_M26_s N_AVSSO_M24_b N18 L=2.5e-07
+ W=3e-05 AD=1.083e-10 AS=2.58e-11 PD=3.722e-05 PS=3.172e-05
M27 N_AVDD_M27_d N_U33_U18_r1_M27_g N_AVSSO_M26_s N_AVSSO_M24_b N18 L=2.5e-07
+ W=3e-05 AD=1.083e-10 AS=2.58e-11 PD=3.722e-05 PS=3.172e-05
M28 N_AVDD_M28_d N_U33_U18_r1_M28_g N_AVSSO_M28_s N_AVSSO_M24_b N18 L=2.5e-07
+ W=3e-05 AD=1.083e-10 AS=2.58e-11 PD=3.722e-05 PS=3.172e-05
M29 N_AVDD_M29_d N_U33_U18_r1_M29_g N_AVSSO_M28_s N_AVSSO_M24_b N18 L=2.5e-07
+ W=3e-05 AD=1.083e-10 AS=2.58e-11 PD=3.722e-05 PS=3.172e-05
D31@2 N_AVSS_D31@2_pos N_VSS_D31@2_neg DPH  AREA=1.331e-11 PJ=2.862e-05
D31@3 N_AVSS_D31@3_pos N_VSS_D31@2_neg DPH  AREA=1.331e-11 PJ=2.862e-05
D31@4 N_AVSS_D31@4_pos N_VSS_D31@2_neg DPH  AREA=1.331e-11 PJ=2.862e-05
D31@5 N_AVSS_D31@5_pos N_VSS_D31@2_neg DPH  AREA=1.331e-11 PJ=2.862e-05
D31@6 N_AVSS_D31@6_pos N_VSS_D31@2_neg DPH  AREA=1.331e-11 PJ=2.862e-05
D31@7 N_AVSS_D31@7_pos N_VSS_D31@2_neg DPH  AREA=1.331e-11 PJ=2.862e-05
D31@8 N_AVSS_D31@8_pos N_VSS_D31@2_neg DPH  AREA=1.331e-11 PJ=2.862e-05
D31@9 N_AVSS_D31@9_pos N_VSS_D31@2_neg DPH  AREA=1.331e-11 PJ=2.862e-05
D31 N_AVSS_D31_pos N_VSS_D31@2_neg DPH  AREA=1.331e-11 PJ=2.862e-05
D30@2 N_VSS_D30@2_pos N_AVSS_D30@2_neg DPH  AREA=1.331e-11 PJ=2.862e-05
D30@3 N_VSS_D30@3_pos N_AVSS_D30@2_neg DPH  AREA=1.331e-11 PJ=2.862e-05
D30@4 N_VSS_D30@4_pos N_AVSS_D30@2_neg DPH  AREA=1.331e-11 PJ=2.862e-05
D30@5 N_VSS_D30@5_pos N_AVSS_D30@2_neg DPH  AREA=1.331e-11 PJ=2.862e-05
D30@6 N_VSS_D30@6_pos N_AVSS_D30@2_neg DPH  AREA=1.331e-11 PJ=2.862e-05
D30@7 N_VSS_D30@7_pos N_AVSS_D30@2_neg DPH  AREA=1.331e-11 PJ=2.862e-05
D30@8 N_VSS_D30@8_pos N_AVSS_D30@2_neg DPH  AREA=1.331e-11 PJ=2.862e-05
D30@9 N_VSS_D30@9_pos N_AVSS_D30@2_neg DPH  AREA=1.331e-11 PJ=2.862e-05
D30 N_VSS_D30_pos N_AVSS_D30@2_neg DPH  AREA=1.331e-11 PJ=2.862e-05
XC3_10 N_AVDD_C3_10_pos N_U33_U18_r1_C3_10_neg NWCAPH2T  L=1.513e-05
+ W=1.513e-05
M3 N_AVSS_M3_d N_U34_U31_r2_M3_g N_AVDD_M3_s N_AVDD_M3_b P18 L=2.5e-07 W=4e-05
+ AD=9.88e-11 AS=5.68e-11 PD=4.494e-05 PS=8.284e-05
M4 N_AVSS_M3_d N_U34_U31_r2_M4_g N_AVDD_M4_s N_AVDD_M3_b P18 L=2.5e-07 W=4e-05
+ AD=9.88e-11 AS=3.64e-11 PD=4.494e-05 PS=4.182e-05
M5 N_AVSS_M5_d N_U34_U31_r2_M5_g N_AVDD_M4_s N_AVDD_M3_b P18 L=2.5e-07 W=4e-05
+ AD=9.88e-11 AS=3.64e-11 PD=4.494e-05 PS=4.182e-05
M6 N_AVSS_M5_d N_U34_U31_r2_M6_g N_AVDD_M6_s N_AVDD_M3_b P18 L=2.5e-07 W=4e-05
+ AD=9.88e-11 AS=3.64e-11 PD=4.494e-05 PS=4.182e-05
M7 N_AVSS_M7_d N_U34_U31_r2_M7_g N_AVDD_M6_s N_AVDD_M3_b P18 L=2.5e-07 W=4e-05
+ AD=9.88e-11 AS=3.64e-11 PD=4.494e-05 PS=4.182e-05
M8 N_AVSS_M7_d N_U34_U31_r2_M8_g N_AVDD_M8_s N_AVDD_M3_b P18 L=2.5e-07 W=4e-05
+ AD=9.88e-11 AS=3.64e-11 PD=4.494e-05 PS=4.182e-05
M9 N_AVSS_M9_d N_U34_U31_r2_M9_g N_AVDD_M8_s N_AVDD_M3_b P18 L=2.5e-07 W=4e-05
+ AD=9.88e-11 AS=3.64e-11 PD=4.494e-05 PS=4.182e-05
M10 N_AVSS_M9_d N_U34_U31_r2_M10_g N_AVDD_M10_s N_AVDD_M3_b P18 L=2.5e-07
+ W=4e-05 AD=9.88e-11 AS=3.64e-11 PD=4.494e-05 PS=4.182e-05
M11 N_AVSS_M11_d N_U34_U31_r2_M11_g N_AVDD_M10_s N_AVDD_M3_b P18 L=2.5e-07
+ W=4e-05 AD=9.88e-11 AS=3.64e-11 PD=4.494e-05 PS=4.182e-05
M12 N_AVSS_M11_d N_U34_U31_r2_M12_g N_AVDD_M12_s N_AVDD_M3_b P18 L=2.5e-07
+ W=4e-05 AD=9.88e-11 AS=3.64e-11 PD=4.494e-05 PS=4.182e-05
M13 N_AVSS_M13_d N_U34_U31_r2_M13_g N_AVDD_M12_s N_AVDD_M3_b P18 L=2.5e-07
+ W=4e-05 AD=9.88e-11 AS=3.64e-11 PD=4.494e-05 PS=4.182e-05
M14 N_AVSS_M13_d N_U34_U31_r2_M14_g N_AVDD_M14_s N_AVDD_M3_b P18 L=2.5e-07
+ W=4e-05 AD=9.88e-11 AS=5.68e-11 PD=4.494e-05 PS=8.284e-05
*
.include "apvdi.dist.sp.APVDI.pxi"
*
.ends
*
*
* File: pc3b01d.dist.sp
* Created: Sun Jul  4 12:08:09 2010
* Program "Calibre xRC"
* Version "v2008.4_19.14"
* 
.include "pc3b01d.dist.sp.pex"
.subckt pc3b01d  PAD I OEN CIN VDD VSS VDDO VSSO 
* 
M56 N_U27_padr_M56_d N_net_m56_VDDO_res_M56_g U28_U22_source N_VSS_M25_b NHV
+ L=5.5e-06 W=2e-06 AD=1.56e-12 AS=4e-13 PD=5.56e-06 PS=2.4e-06
M57 U28_U22_source N_net_m57_VDDO_res_M57_g N_VSSO_M57_s N_VSS_M25_b NHV
+ L=5.5e-06 W=2e-06 AD=4e-13 AS=1.56e-12 PD=2.4e-06 PS=5.56e-06
M3 N_PAD_M4_d N_U27_U69$9_gate_M3_g N_VSSO_M3_s N_VSSO_M4_b NHV L=5e-07 W=3e-05
+ AD=1.008e-10 AS=2.58e-11 PD=3.672e-05 PS=3.172e-05
M4 N_PAD_M4_d N_U27_U69$9_gate_M4_g N_VSSO_M4_s N_VSSO_M4_b NHV L=5e-07 W=3e-05
+ AD=1.008e-10 AS=3.99e-11 PD=3.672e-05 PS=6.266e-05
M5 N_PAD_M6_d N_U27_U69$9_gate_M5_g N_VSSO_M5_s N_VSSO_M4_b NHV L=5e-07 W=3e-05
+ AD=1.008e-10 AS=2.58e-11 PD=3.672e-05 PS=3.172e-05
M6 N_PAD_M6_d N_U27_U69$9_gate_M6_g N_VSSO_M3_s N_VSSO_M4_b NHV L=5e-07 W=3e-05
+ AD=1.008e-10 AS=2.58e-11 PD=3.672e-05 PS=3.172e-05