*SPEF "IEEE 1481-1998"
*DESIGN "fifo_top"
*DATE "Wed Mar  5 13:59:38 2025"
*VENDOR "Cadence Design Systems, Inc."
*PROGRAM "Innovus"
*VERSION "21.18-s099_1"
*DESIGN_FLOW "PIN_CAP NONE" "NAME_SCOPE LOCAL"
*DIVIDER /
*DELIMITER :
*BUS_DELIMITER []
*T_UNIT 1 NS
*C_UNIT 1 PF
*R_UNIT 1 OHM
*L_UNIT 1 HENRY

// MMMC spef file for corner 'rc_best'

*NAME_MAP

*1 wr_clk_pad
*2 rd_clk_pad
*3 wr_en_pad
*4 rd_en_pad
*5 wr_rst_pad
*6 rd_rst_pad
*7 wr_data_pad[7]
*8 wr_data_pad[6]
*9 wr_data_pad[5]
*10 wr_data_pad[4]
*11 wr_data_pad[3]
*12 wr_data_pad[2]
*13 wr_data_pad[1]
*14 wr_data_pad[0]
*15 rd_data_pad[7]
*16 rd_data_pad[6]
*17 rd_data_pad[5]
*18 rd_data_pad[4]
*19 rd_data_pad[3]
*20 rd_data_pad[2]
*21 rd_data_pad[1]
*22 rd_data_pad[0]
*23 empty_pad
*24 full_pad
*25 CTS_1
*26 FE_OFN10_wr_rst
*27 FE_OFN7_rd_data_0
*28 FE_OFN6_rd_data_1
*29 FE_OFN5_rd_data_2
*30 FE_OFN4_rd_data_3
*31 FE_OFN3_rd_data_4
*32 FE_OFN2_rd_data_5
*33 FE_OFN1_rd_data_6
*34 FE_OFN0_rd_data_7
*35 wr_addr_grey_sync[4]
*36 wr_addr_grey_sync[3]
*37 wr_addr_grey_sync[2]
*38 wr_addr_grey_sync[1]
*39 wr_addr_grey_sync[0]
*40 rd_addr_grey[4]
*41 rd_addr_grey[3]
*42 rd_addr_grey[2]
*43 rd_addr_grey[1]
*44 rd_addr_grey[0]
*45 rd_addr[3]
*46 rd_addr[2]
*47 rd_addr[1]
*48 rd_addr[0]
*49 rd_addr_grey_sync[4]
*50 rd_addr_grey_sync[3]
*51 rd_addr_grey_sync[2]
*52 rd_addr_grey_sync[1]
*53 rd_addr_grey_sync[0]
*54 wr_addr_grey[4]
*55 wr_addr_grey[3]
*56 wr_addr_grey[2]
*57 wr_addr_grey[1]
*58 wr_addr_grey[0]
*59 wr_addr[3]
*60 wr_addr[2]
*61 wr_addr[1]
*62 wr_addr[0]
*63 wr_data[7]
*64 wr_data[6]
*65 wr_data[5]
*66 wr_data[4]
*67 wr_data[3]
*68 wr_data[2]
*69 wr_data[1]
*70 wr_data[0]
*71 rd_data[7]
*72 rd_data[6]
*73 rd_data[5]
*74 rd_data[4]
*75 rd_data[3]
*76 rd_data[2]
*77 rd_data[1]
*78 rd_data[0]
*79 empty
*80 full
*81 rd_clk
*82 rd_en
*83 rd_rst
*84 read_clk
*85 wr_clk
*86 wr_en
*87 wr_rst
*88 write_clk
*89 e/FE_PHN17_n_9
*90 e/FE_PHN4_n_10
*91 e/FE_PHN3_rd_addr_3
*92 e/FE_PHN2_rd_addr_1
*93 e/FE_PHN1_rd_addr_2
*94 e/FE_PHN0_rd_addr_0
*95 e/FE_OFN8_empty
*96 e/rd_addr_grey_next[3]
*97 e/rd_addr_grey_next[2]
*98 e/rd_addr_grey_next[1]
*99 e/rd_addr_grey_next[0]
*100 e/rd_addr_bin_next[4]
*101 e/rd_addr_bin_next[3]
*102 e/rd_addr_bin_next[2]
*103 e/rd_addr_bin_next[1]
*104 e/rd_addr_bin_next[0]
*105 e/UNCONNECTED
*106 e/n_0
*107 e/n_1
*108 e/n_2
*109 e/n_3
*110 e/n_4
*111 e/n_5
*112 e/n_6
*113 e/n_7
*114 e/n_8
*115 e/n_9
*116 e/n_10
*117 e/n_11
*118 e/n_12
*119 e/n_13
*120 e/n_14
*121 e/n_15
*122 e/n_16
*123 e/n_17
*124 f/FE_PHN20_n_8
*125 f/FE_PHN19_wr_addr_binary_next_1
*126 f/FE_PHN18_wr_addr_binary_next_2
*127 f/FE_PHN16_wr_addr_grey_4
*128 f/FE_OFN9_full
*129 f/wr_addr_grey_next[3]
*130 f/wr_addr_grey_next[2]
*131 f/wr_addr_grey_next[1]
*132 f/wr_addr_grey_next[0]
*133 f/wr_addr_binary_next[4]
*134 f/wr_addr_binary_next[3]
*135 f/wr_addr_binary_next[2]
*136 f/wr_addr_binary_next[1]
*137 f/wr_addr_binary_next[0]
*138 f/n_0
*139 f/n_1
*140 f/n_2
*141 f/n_3
*142 f/n_4
*143 f/n_5
*144 f/n_6
*145 f/n_7
*146 f/n_8
*147 f/n_9
*148 f/n_10
*149 f/n_11
*150 f/n_12
*151 f/n_13
*152 f/n_14
*153 f/n_15
*154 f/n_16
*155 m/FE_PHN21_wr_addr_0
*156 m/FE_PHN15_wr_addr_0
*157 m/CTS_1
*158 m/FE_OFN11_wr_rst
*159 m/mem\[8\][7]
*160 m/mem\[8\][6]
*161 m/mem\[8\][5]
*162 m/mem\[8\][4]
*163 m/mem\[8\][3]
*164 m/mem\[8\][2]
*165 m/mem\[8\][1]
*166 m/mem\[8\][0]
*167 m/mem\[9\][7]
*168 m/mem\[9\][6]
*169 m/mem\[9\][5]
*170 m/mem\[9\][4]
*171 m/mem\[9\][3]
*172 m/mem\[9\][2]
*173 m/mem\[9\][1]
*174 m/mem\[9\][0]
*175 m/mem\[0\][7]
*176 m/mem\[0\][6]
*177 m/mem\[0\][5]
*178 m/mem\[0\][4]
*179 m/mem\[0\][3]
*180 m/mem\[0\][2]
*181 m/mem\[0\][1]
*182 m/mem\[0\][0]
*183 m/mem\[1\][7]
*184 m/mem\[1\][6]
*185 m/mem\[1\][5]
*186 m/mem\[1\][4]
*187 m/mem\[1\][3]
*188 m/mem\[1\][2]
*189 m/mem\[1\][1]
*190 m/mem\[1\][0]
*191 m/mem\[4\][7]
*192 m/mem\[4\][6]
*193 m/mem\[4\][5]
*194 m/mem\[4\][4]
*195 m/mem\[4\][3]
*196 m/mem\[4\][2]
*197 m/mem\[4\][1]
*198 m/mem\[4\][0]
*199 m/mem\[5\][7]
*200 m/mem\[5\][6]
*201 m/mem\[5\][5]
*202 m/mem\[5\][4]
*203 m/mem\[5\][3]
*204 m/mem\[5\][2]
*205 m/mem\[5\][1]
*206 m/mem\[5\][0]
*207 m/mem\[2\][7]
*208 m/mem\[2\][6]
*209 m/mem\[2\][5]
*210 m/mem\[2\][4]
*211 m/mem\[2\][3]
*212 m/mem\[2\][2]
*213 m/mem\[2\][1]
*214 m/mem\[2\][0]
*215 m/mem\[3\][7]
*216 m/mem\[3\][6]
*217 m/mem\[3\][5]
*218 m/mem\[3\][4]
*219 m/mem\[3\][3]
*220 m/mem\[3\][2]
*221 m/mem\[3\][1]
*222 m/mem\[3\][0]
*223 m/mem\[14\][7]
*224 m/mem\[14\][6]
*225 m/mem\[14\][5]
*226 m/mem\[14\][4]
*227 m/mem\[14\][3]
*228 m/mem\[14\][2]
*229 m/mem\[14\][1]
*230 m/mem\[14\][0]
*231 m/mem\[15\][7]
*232 m/mem\[15\][6]
*233 m/mem\[15\][5]
*234 m/mem\[15\][4]
*235 m/mem\[15\][3]
*236 m/mem\[15\][2]
*237 m/mem\[15\][1]
*238 m/mem\[15\][0]
*239 m/mem\[10\][7]
*240 m/mem\[10\][6]
*241 m/mem\[10\][5]
*242 m/mem\[10\][4]
*243 m/mem\[10\][3]
*244 m/mem\[10\][2]
*245 m/mem\[10\][1]
*246 m/mem\[10\][0]
*247 m/mem\[11\][7]
*248 m/mem\[11\][6]
*249 m/mem\[11\][5]
*250 m/mem\[11\][4]
*251 m/mem\[11\][3]
*252 m/mem\[11\][2]
*253 m/mem\[11\][1]
*254 m/mem\[11\][0]
*255 m/mem\[6\][7]
*256 m/mem\[6\][6]
*257 m/mem\[6\][5]
*258 m/mem\[6\][4]
*259 m/mem\[6\][3]
*260 m/mem\[6\][2]
*261 m/mem\[6\][1]
*262 m/mem\[6\][0]
*263 m/mem\[7\][7]
*264 m/mem\[7\][6]
*265 m/mem\[7\][5]
*266 m/mem\[7\][4]
*267 m/mem\[7\][3]
*268 m/mem\[7\][2]
*269 m/mem\[7\][1]
*270 m/mem\[7\][0]
*271 m/mem\[12\][7]
*272 m/mem\[12\][6]
*273 m/mem\[12\][5]
*274 m/mem\[12\][4]
*275 m/mem\[12\][3]
*276 m/mem\[12\][2]
*277 m/mem\[12\][1]
*278 m/mem\[12\][0]
*279 m/mem\[13\][7]
*280 m/mem\[13\][6]
*281 m/mem\[13\][5]
*282 m/mem\[13\][4]
*283 m/mem\[13\][3]
*284 m/mem\[13\][2]
*285 m/mem\[13\][1]
*286 m/mem\[13\][0]
*287 m/n_0
*288 m/n_1
*289 m/n_2
*290 m/n_3
*291 m/n_4
*292 m/n_5
*293 m/n_6
*294 m/n_7
*295 m/n_8
*296 m/n_9
*297 m/n_10
*298 m/n_11
*299 m/n_12
*300 m/n_13
*301 m/n_14
*302 m/n_15
*303 m/n_16
*304 m/n_17
*305 m/n_18
*306 m/n_19
*307 m/n_20
*308 m/n_21
*309 m/n_22
*310 m/n_23
*311 m/n_24
*312 m/n_25
*313 m/n_26
*314 m/n_27
*315 m/n_28
*316 m/n_29
*317 m/n_30
*318 m/n_31
*319 m/n_32
*320 m/n_33
*321 m/n_34
*322 m/n_35
*323 m/n_36
*324 m/n_37
*325 m/n_38
*326 m/n_39
*327 m/n_40
*328 m/n_41
*329 m/n_42
*330 m/n_43
*331 m/n_44
*332 m/n_45
*333 m/n_46
*334 m/n_47
*335 m/n_48
*336 m/n_49
*337 m/n_50
*338 m/n_51
*339 m/n_52
*340 m/n_53
*341 m/n_54
*342 m/n_55
*343 m/n_56
*344 m/n_57
*345 m/n_58
*346 m/n_59
*347 m/n_60
*348 m/n_61
*349 m/n_62
*350 m/n_63
*351 m/n_64
*352 m/n_65
*353 m/n_66
*354 m/n_67
*355 m/n_68
*356 m/n_69
*357 m/n_70
*358 m/n_71
*359 m/n_72
*360 m/n_73
*361 m/n_74
*362 m/n_75
*363 m/n_76
*364 m/n_77
*365 m/n_78
*366 m/n_79
*367 m/n_80
*368 m/n_81
*369 m/n_82
*370 m/n_83
*371 m/n_84
*372 m/n_85
*373 m/n_86
*374 m/n_87
*375 m/n_88
*376 m/n_89
*377 m/n_90
*378 m/n_91
*379 m/n_92
*380 m/n_93
*381 m/n_94
*382 m/n_95
*383 m/n_96
*384 m/n_97
*385 m/n_98
*386 m/n_99
*387 m/n_100
*388 m/n_101
*389 m/n_102
*390 m/n_103
*391 m/n_104
*392 m/n_105
*393 m/n_106
*394 m/n_107
*395 m/n_108
*396 m/n_109
*397 m/n_110
*398 m/n_111
*399 m/n_112
*400 m/n_113
*401 m/n_114
*402 m/n_115
*403 m/n_116
*404 m/n_117
*405 m/n_118
*406 m/n_119
*407 m/n_120
*408 m/n_121
*409 m/n_122
*410 m/n_123
*411 m/n_124
*412 m/n_125
*413 m/n_126
*414 m/n_127
*415 m/n_128
*416 rd_addr_sync/in_data_n[4]
*417 rd_addr_sync/in_data_n[3]
*418 rd_addr_sync/in_data_n[2]
*419 rd_addr_sync/in_data_n[1]
*420 rd_addr_sync/in_data_n[0]
*421 rd_addr_sync/dff_2/FE_PHN9_in_data_n_1
*422 rd_addr_sync/dff_2/FE_PHN8_in_data_n_3
*423 rd_addr_sync/dff_2/FE_PHN7_in_data_n_2
*424 rd_addr_sync/dff_2/FE_PHN6_in_data_n_0
*425 rd_addr_sync/dff_2/FE_PHN5_in_data_n_4
*426 wr_addr_sync/in_data_n[4]
*427 wr_addr_sync/in_data_n[3]
*428 wr_addr_sync/in_data_n[2]
*429 wr_addr_sync/in_data_n[1]
*430 wr_addr_sync/in_data_n[0]
*431 wr_addr_sync/dff_2/FE_PHN14_in_data_n_2
*432 wr_addr_sync/dff_2/FE_PHN13_in_data_n_0
*433 wr_addr_sync/dff_2/FE_PHN12_in_data_n_1
*434 wr_addr_sync/dff_2/FE_PHN11_in_data_n_4
*435 wr_addr_sync/dff_2/FE_PHN10_in_data_n_3
*436 CTS_ccl_a_buf_00061
*437 FE_OFC10_wr_rst
*438 FE_OFC7_rd_data_0
*439 FE_OFC6_rd_data_1
*440 FE_OFC5_rd_data_2
*441 FE_OFC4_rd_data_3
*442 FE_OFC3_rd_data_4
*443 FE_OFC2_rd_data_5
*444 FE_OFC1_rd_data_6
*445 FE_OFC0_rd_data_7
*446 e/FE_PHC17_n_9
*447 e/FE_PHC4_n_10
*448 e/FE_PHC3_rd_addr_3
*449 e/FE_PHC2_rd_addr_1
*450 e/FE_PHC1_rd_addr_2
*451 e/FE_PHC0_rd_addr_0
*452 e/FE_OFC8_empty
*453 e/g137
*454 e/rd_addr_grey_reg\[3\]
*455 e/g184__2398
*456 e/rd_addr_grey_reg\[2\]
*457 e/g186
*458 e/g187__5107
*459 e/g188__6260
*460 e/g189__4319
*461 e/rd_addr_grey_reg\[1\]
*462 e/g191__8428
*463 e/g192__5526
*464 e/rd_addr_grey_reg\[0\]
*465 e/g194__6783
*466 e/g195__3680
*467 e/g196__1617
*468 e/g197__2802
*469 e/empty_r_reg
*470 e/g199__1705
*471 e/g200__5122
*472 e/g201__8246
*473 e/g202__7098
*474 e/g203__6131
*475 e/g204__1881
*476 e/rd_addr_bin_r_reg\[0\]
*477 e/rd_addr_bin_r_reg\[1\]
*478 e/rd_addr_bin_r_reg\[2\]
*479 e/rd_addr_bin_r_reg\[3\]
*480 e/g208__5115
*481 e/g209
*482 e/g210
*483 e/g211
*484 e/rd_addr_bin_r_reg\[4\]
*485 f/FE_PHC20_n_8
*486 f/FE_PHC19_wr_addr_binary_next_1
*487 f/FE_PHC18_wr_addr_binary_next_2
*488 f/FE_PHC16_wr_addr_grey_4
*489 f/FE_OFC9_full
*490 f/g162
*491 f/wr_addr_grey_reg\[3\]
*492 f/g212__7482
*493 f/wr_addr_grey_reg\[2\]
*494 f/g214
*495 f/g215__4733
*496 f/g216__6161
*497 f/g217
*498 f/g218__9315
*499 f/wr_addr_grey_reg\[1\]
*500 f/g220__9945
*501 f/g221__2883
*502 f/wr_addr_grey_reg\[0\]
*503 f/g223__2346
*504 f/g224__1666
*505 f/g225__7410
*506 f/g226__6417
*507 f/full_r_reg
*508 f/g227__5477
*509 f/g228__2398
*510 f/g229__5107
*511 f/g230__6260
*512 f/g231__4319
*513 f/g232__8428
*514 f/wr_addr_bin_r_reg\[0\]
*515 f/wr_addr_bin_r_reg\[1\]
*516 f/wr_addr_bin_r_reg\[2\]
*517 f/wr_addr_bin_r_reg\[4\]
*518 f/wr_addr_bin_r_reg\[3\]
*519 f/g237__5526
*520 f/g238
*521 f/g239
*522 m/FE_PHC21_wr_addr_0
*523 m/FE_PHC15_wr_addr_0
*524 m/CTS_ccl_a_buf_00062
*525 m/FE_OFC11_wr_rst
*526 m/g3106__6783
*527 m/g3107__3680
*528 m/g3108__1617
*529 m/g3109__2802
*530 m/g3110__1705
*531 m/g3111__5122
*532 m/g3112__8246
*533 m/g3113__7098
*534 m/g3114__6131
*535 m/g3115__1881
*536 m/g3116__5115
*537 m/g3117__7482
*538 m/g3118__4733
*539 m/g3119__6161
*540 m/g3120__9315
*541 m/g3121__9945
*542 m/g3122__2883
*543 m/g3123__2346
*544 m/g3124__1666
*545 m/g3125__7410
*546 m/g3126__6417
*547 m/g3127__5477
*548 m/g3128__2398
*549 m/g3129__5107
*550 m/g3130__6260
*551 m/g3131__4319
*552 m/g3132__8428
*553 m/g3133__5526
*554 m/g3134__6783
*555 m/g3135__3680
*556 m/g3136__1617
*557 m/g3137__2802
*558 m/g3138__1705
*559 m/g3139__5122
*560 m/g3140__8246
*561 m/g3141__7098
*562 m/g3142__6131
*563 m/g3143__1881
*564 m/g3144__5115
*565 m/g3145__7482
*566 m/g3146__4733
*567 m/g3147__6161
*568 m/g3148__9315
*569 m/g3149__9945
*570 m/g3150__2883
*571 m/g3151__2346
*572 m/g3152__1666
*573 m/g3153__7410
*574 m/g3154__6417
*575 m/g3155__5477
*576 m/g3156__2398
*577 m/g3157__5107
*578 m/g3158__6260
*579 m/g3159__4319
*580 m/g3160__8428
*581 m/g3161__5526
*582 m/g3162__6783
*583 m/g3163__3680
*584 m/g3164__1617
*585 m/g3165__2802
*586 m/g3166__1705
*587 m/g3167__5122
*588 m/g3168__8246
*589 m/g3169__7098
*590 m/g3170__6131
*591 m/g3171__1881
*592 m/g3172__5115
*593 m/g3173__7482
*594 m/g3174__4733
*595 m/g3175__6161
*596 m/g3176__9315
*597 m/g3177__9945
*598 m/g3178__2883
*599 m/g3179__2346
*600 m/g3180__1666
*601 m/g3181__7410
*602 m/g3182__6417
*603 m/g3183__5477
*604 m/g3184__2398
*605 m/g3185__5107
*606 m/g3186__6260
*607 m/g3187__4319
*608 m/g3188__8428
*609 m/g3189__5526
*610 m/g3190__6783
*611 m/g3191__3680
*612 m/g3192__1617
*613 m/g3193__2802
*614 m/g3194__1705
*615 m/g3195__5122
*616 m/g3196__8246
*617 m/g3197__7098
*618 m/g3198__6131
*619 m/g3199__1881
*620 m/g3200__5115
*621 m/g3201__7482
*622 m/g3202__4733
*623 m/g3203__6161
*624 m/g3204__9315
*625 m/g3205__9945
*626 m/g3206__2883
*627 m/g3207__2346
*628 m/g3208__1666
*629 m/g3209__7410
*630 m/mem_reg\[0\]\[0\]
*631 m/mem_reg\[0\]\[1\]
*632 m/mem_reg\[0\]\[2\]
*633 m/mem_reg\[0\]\[3\]
*634 m/mem_reg\[0\]\[4\]
*635 m/mem_reg\[0\]\[5\]
*636 m/mem_reg\[0\]\[6\]
*637 m/mem_reg\[0\]\[7\]
*638 m/mem_reg\[1\]\[0\]
*639 m/mem_reg\[1\]\[1\]
*640 m/mem_reg\[1\]\[2\]
*641 m/mem_reg\[1\]\[3\]
*642 m/mem_reg\[1\]\[4\]
*643 m/mem_reg\[1\]\[5\]
*644 m/mem_reg\[1\]\[6\]
*645 m/mem_reg\[1\]\[7\]
*646 m/mem_reg\[2\]\[0\]
*647 m/mem_reg\[2\]\[1\]
*648 m/mem_reg\[2\]\[2\]
*649 m/mem_reg\[2\]\[3\]
*650 m/mem_reg\[2\]\[4\]
*651 m/mem_reg\[2\]\[5\]
*652 m/mem_reg\[2\]\[6\]
*653 m/mem_reg\[2\]\[7\]
*654 m/mem_reg\[3\]\[0\]
*655 m/mem_reg\[3\]\[1\]
*656 m/mem_reg\[3\]\[2\]
*657 m/mem_reg\[3\]\[3\]
*658 m/mem_reg\[3\]\[4\]
*659 m/mem_reg\[3\]\[5\]
*660 m/mem_reg\[3\]\[6\]
*661 m/mem_reg\[3\]\[7\]
*662 m/mem_reg\[4\]\[0\]
*663 m/mem_reg\[4\]\[1\]
*664 m/mem_reg\[4\]\[2\]
*665 m/mem_reg\[4\]\[3\]
*666 m/mem_reg\[4\]\[4\]
*667 m/mem_reg\[4\]\[5\]
*668 m/mem_reg\[4\]\[6\]
*669 m/mem_reg\[4\]\[7\]
*670 m/mem_reg\[5\]\[0\]
*671 m/mem_reg\[5\]\[1\]
*672 m/mem_reg\[5\]\[2\]
*673 m/mem_reg\[5\]\[3\]
*674 m/mem_reg\[5\]\[4\]
*675 m/mem_reg\[5\]\[5\]
*676 m/mem_reg\[5\]\[6\]
*677 m/mem_reg\[5\]\[7\]
*678 m/mem_reg\[6\]\[0\]
*679 m/mem_reg\[6\]\[1\]
*680 m/mem_reg\[6\]\[2\]
*681 m/mem_reg\[6\]\[3\]
*682 m/mem_reg\[6\]\[4\]
*683 m/mem_reg\[6\]\[5\]
*684 m/mem_reg\[6\]\[6\]
*685 m/mem_reg\[6\]\[7\]
*686 m/mem_reg\[7\]\[0\]
*687 m/mem_reg\[7\]\[1\]
*688 m/mem_reg\[7\]\[2\]
*689 m/mem_reg\[7\]\[3\]
*690 m/mem_reg\[7\]\[4\]
*691 m/mem_reg\[7\]\[5\]
*692 m/mem_reg\[7\]\[6\]
*693 m/mem_reg\[7\]\[7\]
*694 m/mem_reg\[8\]\[0\]
*695 m/mem_reg\[8\]\[1\]
*696 m/mem_reg\[8\]\[2\]
*697 m/mem_reg\[8\]\[3\]
*698 m/mem_reg\[8\]\[4\]
*699 m/mem_reg\[8\]\[5\]
*700 m/mem_reg\[8\]\[6\]
*701 m/mem_reg\[8\]\[7\]
*702 m/mem_reg\[9\]\[0\]
*703 m/mem_reg\[9\]\[1\]
*704 m/mem_reg\[9\]\[2\]
*705 m/mem_reg\[9\]\[3\]
*706 m/mem_reg\[9\]\[4\]
*707 m/mem_reg\[9\]\[5\]
*708 m/mem_reg\[9\]\[6\]
*709 m/mem_reg\[9\]\[7\]
*710 m/mem_reg\[10\]\[0\]
*711 m/mem_reg\[10\]\[1\]
*712 m/mem_reg\[10\]\[2\]
*713 m/mem_reg\[10\]\[3\]
*714 m/mem_reg\[10\]\[4\]
*715 m/mem_reg\[10\]\[5\]
*716 m/mem_reg\[10\]\[6\]
*717 m/mem_reg\[10\]\[7\]
*718 m/mem_reg\[11\]\[0\]
*719 m/mem_reg\[11\]\[1\]
*720 m/mem_reg\[11\]\[2\]
*721 m/mem_reg\[11\]\[3\]
*722 m/mem_reg\[11\]\[4\]
*723 m/mem_reg\[11\]\[5\]
*724 m/mem_reg\[11\]\[6\]
*725 m/mem_reg\[11\]\[7\]
*726 m/mem_reg\[12\]\[0\]
*727 m/mem_reg\[12\]\[1\]
*728 m/mem_reg\[12\]\[2\]
*729 m/mem_reg\[12\]\[3\]
*730 m/mem_reg\[12\]\[4\]
*731 m/mem_reg\[12\]\[5\]
*732 m/mem_reg\[12\]\[6\]
*733 m/mem_reg\[12\]\[7\]
*734 m/mem_reg\[13\]\[0\]
*735 m/mem_reg\[13\]\[1\]
*736 m/mem_reg\[13\]\[2\]
*737 m/mem_reg\[13\]\[3\]
*738 m/mem_reg\[13\]\[4\]
*739 m/mem_reg\[13\]\[5\]
*740 m/mem_reg\[13\]\[6\]
*741 m/mem_reg\[13\]\[7\]
*742 m/mem_reg\[14\]\[0\]
*743 m/mem_reg\[14\]\[1\]
*744 m/mem_reg\[14\]\[2\]
*745 m/mem_reg\[14\]\[3\]
*746 m/mem_reg\[14\]\[4\]
*747 m/mem_reg\[14\]\[5\]
*748 m/mem_reg\[14\]\[6\]
*749 m/mem_reg\[14\]\[7\]
*750 m/mem_reg\[15\]\[0\]
*751 m/mem_reg\[15\]\[1\]
*752 m/mem_reg\[15\]\[2\]
*753 m/mem_reg\[15\]\[3\]
*754 m/mem_reg\[15\]\[4\]
*755 m/mem_reg\[15\]\[5\]
*756 m/mem_reg\[15\]\[6\]
*757 m/mem_reg\[15\]\[7\]
*758 m/g1967__6417
*759 m/g1968__5477
*760 m/g1969__2398
*761 m/g1970__5107
*762 m/g1971__6260
*763 m/g1972__4319
*764 m/g1973__8428
*765 m/g1974__5526
*766 m/g1975__6783
*767 m/g1976__3680
*768 m/g1977__1617
*769 m/g1978__2802
*770 m/g1979__1705
*771 m/g1980__5122
*772 m/g1981__8246
*773 m/g1982__7098
*774 m/g1984__6131
*775 m/g1985__1881
*776 m/g1986__5115
*777 m/g1987__7482
*778 m/g1988__4733
*779 m/g1989__6161
*780 m/g1992__9315
*781 m/g1993__9945
*782 m/g1995__2883
*783 m/g1996__2346
*784 m/g1997__1666
*785 m/g1998__7410
*786 m/g1999__6417
*787 m/g2000
*788 m/g2001
*789 m/g2__5477
*790 m/g2002__2398
*791 rd_addr_sync/dff_1/rd_data_reg\[4\]
*792 rd_addr_sync/dff_1/rd_data_reg\[3\]
*793 rd_addr_sync/dff_1/rd_data_reg\[1\]
*794 rd_addr_sync/dff_1/rd_data_reg\[0\]
*795 rd_addr_sync/dff_1/rd_data_reg\[2\]
*796 rd_addr_sync/dff_2/FE_PHC9_in_data_n_1
*797 rd_addr_sync/dff_2/FE_PHC8_in_data_n_3
*798 rd_addr_sync/dff_2/FE_PHC7_in_data_n_2
*799 rd_addr_sync/dff_2/FE_PHC6_in_data_n_0
*800 rd_addr_sync/dff_2/FE_PHC5_in_data_n_4
*801 rd_addr_sync/dff_2/rd_data_reg\[4\]
*802 rd_addr_sync/dff_2/rd_data_reg\[3\]
*803 rd_addr_sync/dff_2/rd_data_reg\[1\]
*804 rd_addr_sync/dff_2/rd_data_reg\[0\]
*805 rd_addr_sync/dff_2/rd_data_reg\[2\]
*806 wr_addr_sync/dff_1/rd_data_reg\[4\]
*807 wr_addr_sync/dff_1/rd_data_reg\[3\]
*808 wr_addr_sync/dff_1/rd_data_reg\[1\]
*809 wr_addr_sync/dff_1/rd_data_reg\[2\]
*810 wr_addr_sync/dff_1/rd_data_reg\[0\]
*811 wr_addr_sync/dff_2/FE_PHC14_in_data_n_2
*812 wr_addr_sync/dff_2/FE_PHC13_in_data_n_0
*813 wr_addr_sync/dff_2/FE_PHC12_in_data_n_1
*814 wr_addr_sync/dff_2/FE_PHC11_in_data_n_4
*815 wr_addr_sync/dff_2/FE_PHC10_in_data_n_3
*816 wr_addr_sync/dff_2/rd_data_reg\[4\]
*817 wr_addr_sync/dff_2/rd_data_reg\[3\]
*818 wr_addr_sync/dff_2/rd_data_reg\[1\]
*819 wr_addr_sync/dff_2/rd_data_reg\[0\]
*820 wr_addr_sync/dff_2/rd_data_reg\[2\]
*821 pc3c01_1
*822 pc3c01_2
*823 pc3d01_1
*824 pc3d01_2
*825 pc3d01_3
*826 pc3d01_4
*827 pc3d01_5
*828 pc3d01_6
*829 pc3d01_7
*830 pc3d01_8
*831 pc3d01_9
*832 pc3d01_10
*833 pc3d01_11
*834 pc3d01_12
*835 pc3d01_13
*836 pc3d01_14
*837 pc3o05_1
*838 pc3o05_2
*839 pc3o05_3
*840 pc3o05_4
*841 pc3o05_5
*842 pc3o05_6
*843 pc3o05_7
*844 pc3o05_8
*845 pc3o05_9
*846 pc3o05_10
*847 pvdi_VDD_CORE_1
*848 pv0i_VSS_CORE_1
*849 pvda_VDDO_CORE_1
*850 pv0a_VSSO_CORE_1
*851 pvdi_VDD_CORE_2
*852 pv0i_VSS_CORE_2
*853 pvda_VDDO_CORE_2
*854 pv0a_VSSO_CORE_2
*855 pvdi_VDD_CORE_3
*856 pv0i_VSS_CORE_3
*857 pvda_VDDO_CORE_3
*858 pv0a_VSSO_CORE_3
*859 pvdi_VDD_CORE_4
*860 pv0i_VSS_CORE_4
*861 pvda_VDDO_CORE_4
*862 pv0a_VSSO_CORE_4
*863 pvdi_VDD_CORE_5
*864 pv0i_VSS_CORE_5
*865 pvda_VDDO_CORE_5
*866 pv0a_VSSO_CORE_5


*PORTS

*1 I *C 480.87 249.79
*2 I *C 454.13 1690.05
*3 I *C 1425.87 249.79
*4 I *C 1560.87 249.79
*5 I *C 1604.13 1690.05
*6 I *C 1029.13 1690.05
*7 I *C 249.79 1144.13
*8 I *C 249.79 1029.13
*9 I *C 249.79 914.13
*10 I *C 249.79 799.13
*11 I *C 249.79 684.13
*12 I *C 249.79 569.13
*13 I *C 249.79 454.13
*14 I *C 249.79 339.13
*15 O *C 1691.7 1132.31
*16 O *C 1691.7 1017.31
*17 O *C 1691.7 902.31
*18 O *C 1691.7 787.31
*19 O *C 1691.7 672.31
*20 O *C 1691.7 557.31
*21 O *C 1691.7 442.31
*22 O *C 1691.7 327.31
*23 O *C 1292.31 248.137
*24 O *C 1157.31 248.137


*D_NET *25 0.164558

*CONN
*I *436:Z O *C 960.92 449.36 *L 0 *D bufbd7
*I *807:CP I *C 1065.08 557.44 *L 0.00287 *D dfcrq1
*I *806:CP I *C 1068.44 568.64 *L 0.00287 *D dfcrq1
*I *816:CP I *C 1081.32 561.92 *L 0.00287 *D dfcrq1
*I *808:CP I *C 1057.24 579.84 *L 0.00287 *D dfcrq1
*I *502:CP I *C 1083 584.32 *L 0.00287 *D dfcrq1
*I *491:CP I *C 1081.32 573.12 *L 0.00287 *D dfcrq1
*I *817:CP I *C 1081.32 557.44 *L 0.00287 *D dfcrq1
*I *818:CP I *C 1071.24 579.84 *L 0.00287 *D dfcrq1
*I *809:CP I *C 1083 606.72 *L 0.00287 *D dfcrq1
*I *493:CP I *C 1083.56 602.24 *L 0.00287 *D dfcrq1
*I *810:CP I *C 1103.16 584.32 *L 0.00287 *D dfcrq1
*I *820:CP I *C 1072.36 595.52 *L 0.00287 *D dfcrq1
*I *499:CP I *C 1083 613.44 *L 0.00287 *D dfcrq1
*I *517:CP I *C 1099.24 584.32 *L 0.00287 *D dfcrq1
*I *507:CP I *C 1109.32 573.12 *L 0.00287 *D dfcrq1
*I *696:CP I *C 1079.64 641.44 *L 0.00274 *D decrq1
*I *751:CP I *C 1052.76 630.24 *L 0.00274 *D decrq1
*I *518:CP I *C 1097 606.72 *L 0.00287 *D dfcrq1
*I *819:CP I *C 1113.8 579.84 *L 0.00287 *D dfcrq1
*I *704:CP I *C 1079.64 652.64 *L 0.00274 *D decrq1
*I *743:CP I *C 1041.56 634.72 *L 0.00274 *D decrq1
*I *515:CP I *C 1122.2 602.24 *L 0.00287 *D dfcrq1
*I *516:CP I *C 1111.56 606.72 *L 0.00287 *D dfcrq1
*I *711:CP I *C 1037.64 623.52 *L 0.00274 *D decrq1
*I *742:CP I *C 1047.16 641.44 *L 0.00274 *D decrq1
*I *631:CP I *C 1133.4 612.32 *L 0.00274 *D decrq1
*I *639:CP I *C 1133.4 601.12 *L 0.00274 *D decrq1
*I *735:CP I *C 1014.12 634.72 *L 0.00274 *D decrq1
*I *719:CP I *C 1028.12 630.24 *L 0.00274 *D decrq1
*I *750:CP I *C 1048.28 652.64 *L 0.00274 *D decrq1
*I *640:CP I *C 1113.8 612.32 *L 0.00274 *D decrq1
*I *646:CP I *C 1084.12 657.12 *L 0.00274 *D decrq1
*I *720:CP I *C 1065.08 657.12 *L 0.00274 *D decrq1
*I *514:CP I *C 1127.8 595.52 *L 0.00287 *D dfcrq1
*I *632:CP I *C 1110.44 619.04 *L 0.00274 *D decrq1
*I *703:CP I *C 994.52 634.72 *L 0.00274 *D decrq1
*I *727:CP I *C 1009.64 630.24 *L 0.00274 *D decrq1
*I *713:CP I *C 1048.84 668.32 *L 0.00274 *D decrq1
*I *712:CP I *C 1051.08 663.84 *L 0.00274 *D decrq1
*I *744:CP I *C 1040.44 657.12 *L 0.00274 *D decrq1
*I *679:CP I *C 1128.92 619.04 *L 0.00274 *D decrq1
*I *654:CP I *C 1088.04 663.84 *L 0.00274 *D decrq1
*I *630:CP I *C 1153.56 612.32 *L 0.00274 *D decrq1
*I *638:CP I *C 1150.2 607.84 *L 0.00274 *D decrq1
*I *695:CP I *C 991.16 645.92 *L 0.00274 *D decrq1
*I *710:CP I *C 1038.2 663.84 *L 0.00274 *D decrq1
*I *734:CP I *C 1020.28 645.92 *L 0.00274 *D decrq1
*I *687:CP I *C 1138.44 630.24 *L 0.00274 *D decrq1
*I *694:CP I *C 991.16 652.64 *L 0.00274 *D decrq1
*I *678:CP I *C 1151.32 619.04 *L 0.00274 *D decrq1
*I *648:CP I *C 1101.48 657.12 *L 0.00274 *D decrq1
*I *736:CP I *C 1085.8 668.32 *L 0.00274 *D decrq1
*I *718:CP I *C 1021.96 657.12 *L 0.00274 *D decrq1
*I *680:CP I *C 1120.52 630.24 *L 0.00274 *D decrq1
*I *656:CP I *C 1107.08 663.84 *L 0.00274 *D decrq1
*I *702:CP I *C 990.6 663.84 *L 0.00274 *D decrq1
*I *726:CP I *C 1011.88 663.84 *L 0.00274 *D decrq1
*I *688:CP I *C 1122.76 652.64 *L 0.00274 *D decrq1
*I *664:CP I *C 1123.32 641.44 *L 0.00274 *D decrq1
*I *663:CP I *C 1136.76 634.72 *L 0.00274 *D decrq1
*I *655:CP I *C 1117.72 634.72 *L 0.00274 *D decrq1
*I *737:CP I *C 1007.96 668.32 *L 0.00274 *D decrq1
*I *642:CP I *C 1108.2 668.32 *L 0.00274 *D decrq1
*I *647:CP I *C 1113.8 645.92 *L 0.00274 *D decrq1
*I *686:CP I *C 1156.36 634.72 *L 0.00274 *D decrq1
*I *671:CP I *C 1140.12 652.64 *L 0.00274 *D decrq1
*I *649:CP I *C 1137.32 657.12 *L 0.00274 *D decrq1
*I *689:CP I *C 1126.68 668.32 *L 0.00274 *D decrq1
*I *673:CP I *C 1156.92 657.12 *L 0.00274 *D decrq1
*I *670:CP I *C 1156.36 641.44 *L 0.00274 *D decrq1
*I *672:CP I *C 1126.12 663.84 *L 0.00274 *D decrq1
*I *662:CP I *C 1158.04 652.64 *L 0.00274 *D decrq1

*CAP
1 *25:3 0.00690521
2 *25:4 0.00690521
3 *25:5 0.00735908
4 *25:6 0.00768419
5 *25:7 0.000852955
6 *25:9 0.00140759
7 *25:10 0.00133493
8 *25:11 0.000879742
9 *25:12 0.000276335
10 *25:13 0.00133493
11 *25:14 0.000609462
12 *806:CP 0.000276335
13 *25:16 0.0010117
14 *25:17 0.000458883
15 *25:18 0.000567745
16 *25:19 0.00175948
17 *25:20 0.000457071
18 *25:21 0.000417167
19 *25:22 0.000867382
20 *25:24 0.00224334
21 *25:25 0.000138167
22 *25:26 0.00032511
23 *25:29 0.00303776
24 *25:32 0.00145157
25 *25:33 0.0015018
26 *491:CP 0.000138167
27 *25:39 0.00217037
28 *25:40 0.0005006
29 *25:41 0.000395884
30 *25:42 8.79742e-05
31 *25:43 0.00196068
32 *25:44 0.00220435
33 *25:45 0.0005006
34 *25:46 0.000879742
35 *25:47 0.00104292
36 *25:48 4.39871e-05
37 *25:49 0.000792617
38 *25:51 0.00117635
39 *25:52 0.00133846
40 *25:54 0.000527845
41 *25:56 0.00212755
42 *25:58 0.000333733
43 *25:59 0.000879742
44 *810:CP 0.000322391
45 *25:62 0.000580888
46 *25:63 0.000887034
47 *25:64 0.00035448
48 *25:68 0.00186616
49 *25:69 0.000351897
50 *25:70 0.000351897
51 *25:71 0.000879742
52 *517:CP 0.000322391
53 *25:73 0.00154903
54 *25:74 0.000887034
55 *25:75 0.000487409
56 *25:76 0.00035448
57 *25:77 0.00155943
58 *25:78 0.000351897
59 *25:79 0.000351897
60 *25:80 0.000351897
61 *25:82 0.0013554
62 *25:84 0.00106444
63 *25:86 0.00159516
64 *25:88 0.000777896
65 *25:90 0.000747781
66 *25:93 0.000387258
67 *25:95 0.00186277
68 *25:96 0.000886199
69 *25:99 0.0013293
70 *25:100 0.00017724
71 *25:101 0.000789888
72 *25:104 0.00111925
73 *25:106 0.00159983
74 *25:107 0.00146361
75 *25:108 0.00035448
76 *25:109 0.000886199
77 *25:110 0.000797579
78 *25:111 8.86199e-05
79 *25:112 4.43099e-05
80 *25:113 0.00116797
81 *25:114 0.000473933
82 *25:115 0.000644235
83 *25:116 0.000219936
84 *25:117 0.000705809
85 *25:118 0.0012234
86 *25:119 0.00142106
87 *25:121 0.00035448
88 *25:123 0.000708959
89 *25:124 0.000665275
90 *25:125 4.43099e-05
91 *25:127 0.00175062
92 *25:128 0.00116684
93 *25:130 0.000394944
94 *25:132 0.000145222
95 *25:133 4.39871e-05
96 *25:134 0.00141162
97 *25:137 0.00129964
98 *25:138 0.00035448
99 *25:142 0.00039879
100 *25:143 0.00022155
101 *25:144 0.00226194
102 *25:146 0.000936707
103 *25:147 0.000401446
104 *25:148 0.00140021
105 *25:149 0.000454879
106 *25:150 4.84073e-05
107 *25:152 0.00108224
108 *25:153 0.000580888
109 *25:158 0.000233395
110 *25:160 0.00035448
111 *25:161 0.00035448
112 *25:162 0.000842682
113 *25:163 4.43099e-05
114 *25:164 0.00159666
115 *25:166 0.00119802
116 *25:167 4.46051e-05
117 *25:168 0.000233369
118 *25:169 0.000355449
119 *514:CP 0.000454879
120 *25:172 4.84073e-05
121 *25:173 0.000629295
122 *25:174 0.00080694
123 *25:179 0.000842682
124 *25:181 0.000930509
125 *25:184 0.000385078
126 *25:185 0.000812943
127 *25:188 0.000118483
128 *25:189 0.000315955
129 *25:190 0.000629295
130 *25:191 0.000242037
131 *25:193 0.0012911
132 *25:195 0.000664649
133 *25:196 0.000886199
134 *25:198 4.46051e-05
135 *25:201 0.000541171
136 *25:203 0.00053248
137 *25:204 9.68146e-05
138 *25:205 0.00053248
139 *25:206 0.000927981
140 *25:210 0.000487409
141 *25:211 0.00017724
142 *25:215 0.000535261
143 *25:216 0.000462182
144 *25:217 0.000517593
145 *25:218 4.84073e-05
146 *25:219 0.000338851
147 *25:220 0.000484164
148 *25:222 0.000665275
149 *25:223 4.43099e-05
150 *25:224 0.000892102
151 *25:225 0.000223026
152 *25:227 0.000517593
153 *25:230 0.00040347
154 *25:231 0.000975348
155 *25:233 0.000936708
156 *25:234 0.00147211
157 *25:235 4.46051e-05
158 *25:236 0.000338851
159 *25:237 0.000363123
160 *25:238 0.000310072
161 *25:240 0.000847497
162 *25:241 8.92102e-05
163 *25:242 0.00260997
164 *25:243 0.000402453
165 *25:245 0.000435666
166 *25:249 0.000322776
167 *25:252 0.000535261
168 *25:253 0.00073183
169 *25:254 4.46051e-05
170 *25:255 0.00154031
171 *25:258 0.000145222
172 *25:259 0.000322776
173 *25:260 0.000299505
174 *25:262 0.00073183
175 *25:264 4.46051e-05
176 *25:269 4.84073e-05
177 *25:271 0.00111245
178 *25:273 0.000535261
179 *25:275 0.00102688
180 *25:276 0.000847497
181 *25:279 0.00147197
182 *25:280 8.92102e-05
183 *25:281 0.000213932
184 *25:282 0.000356841
185 *25:283 0.00129355
186 *25:284 0.00138276
187 *25:285 8.92102e-05
188 *25:286 4.46051e-05
189 *25:288 0.000356841
190 *25:289 0.000401446
191 *25:290 8.92102e-05
192 *25:291 0.000312236
193 *25:292 0.000133815
194 *25:293 4.46051e-05
195 *25:299 4.46051e-05
196 *25:301 4.46051e-05

*RES
1 *25:301 *662:CP 6
2 *25:299 *672:CP 6
3 *25:293 *670:CP 6
4 *25:292 *25:301 0.16
5 *25:291 *673:CP 6
6 *25:290 *25:299 0.16
7 *25:289 *689:CP 6
8 *25:288 *649:CP 6
9 *25:287 *671:CP 6
10 *25:287 *25:295 0.192857
11 *25:286 *686:CP 6
12 *25:285 *25:293 0.16
13 *25:284 *25:292 0.32
14 *25:284 *25:291 1.12
15 *25:283 *25:290 0.16
16 *25:283 *25:289 1.44
17 *25:282 *25:288 1.28
18 *25:281 *25:287 6
19 *25:280 *25:286 0.16
20 *25:279 *25:285 0.16
21 *25:279 *25:284 3.52
22 *25:276 *25:283 3.04
23 *25:275 *25:282 6
24 *25:275 *25:281 0.8
25 *25:273 *25:280 0.16
26 *25:273 *25:279 1.6
27 *25:272 *647:CP 6
28 *25:272 *25:277 0.192857
29 *25:271 *25:276 6
30 *25:271 *25:275 3.04
31 *25:269 *642:CP 6
32 *25:264 *25:273 0.16
33 *25:262 *25:272 6
34 *25:260 *25:271 1.12
35 *25:259 *737:CP 6
36 *25:258 *25:269 0.16
37 *25:257 *655:CP 6
38 *25:257 *25:267 0.192857
39 *25:256 *663:CP 6
40 *25:256 *25:265 0.192857
41 *25:255 *25:264 6
42 *25:254 *664:CP 6
43 *25:253 *25:262 2.56
44 *25:252 *688:CP 6
45 *25:252 *25:260 6
46 *25:249 *25:259 1.28
47 *25:245 *25:258 0.32
48 *25:243 *25:257 6
49 *25:242 *25:256 6
50 *25:242 *25:255 5.76
51 *25:241 *25:254 0.16
52 *25:240 *25:253 6
53 *25:240 *25:252 1.92
54 *25:239 *726:CP 6
55 *25:239 *25:250 0.192857
56 *25:238 *25:249 6
57 *25:237 *702:CP 6
58 *25:236 *656:CP 6
59 *25:236 *25:246 0.192857
60 *25:236 *25:245 1.12
61 *25:235 *680:CP 6
62 *25:234 *25:243 1.44
63 *25:234 *25:242 4
64 *25:233 *25:241 0.16
65 *25:233 *25:240 1.12
66 *25:231 *25:239 6
67 *25:231 *25:238 1.12
68 *25:230 *25:237 1.44
69 *25:227 *25:236 6
70 *25:225 *25:235 0.16
71 *25:224 *25:234 6
72 *25:224 *25:233 2.08
73 *25:223 *718:CP 6
74 *25:222 *25:231 2.4
75 *25:220 *25:230 0.16
76 *25:219 *736:CP 6
77 *25:218 *648:CP 6
78 *25:217 *25:227 1.76
79 *25:216 *678:CP 6
80 *25:215 *25:225 0.64
81 *25:215 *25:224 1.12
82 *25:211 *25:223 0.16
83 *25:210 *25:222 6
84 *25:206 *694:CP 6
85 *25:206 *25:220 1.76
86 *25:205 *25:219 1.12
87 *25:204 *25:218 0.16
88 *25:203 *25:217 6
89 *25:201 *25:216 1.76
90 *25:198 *25:215 0.16
91 *25:197 *687:CP 6
92 *25:197 *25:213 0.192857
93 *25:196 *734:CP 6
94 *25:195 *25:211 0.48
95 *25:195 *25:210 1.76
96 *25:194 *710:CP 6
97 *25:194 *25:208 0.192857
98 *25:193 *695:CP 6
99 *25:193 *25:206 1.92
100 *25:191 *25:205 0.64
101 *25:190 *25:204 0.16
102 *25:190 *25:203 1.76
103 *25:189 *638:CP 6
104 *25:188 *25:201 0.32
105 *25:187 *630:CP 6
106 *25:187 *25:199 0.192857
107 *25:185 *25:198 6
108 *25:184 *25:197 6
109 *25:181 *25:196 3.2
110 *25:181 *25:195 0.16
111 *25:179 *25:194 6
112 *25:174 *25:193 3.2
113 *25:173 *654:CP 6
114 *25:173 *25:191 0.16
115 *25:172 *25:190 0.16
116 *25:169 *25:189 1.28
117 *25:169 *25:188 0.16
118 *25:168 *25:187 6
119 *25:167 *679:CP 6
120 *25:166 *25:185 3.04
121 *25:166 *25:184 1.44
122 *25:165 *744:CP 6
123 *25:165 *25:182 0.192857
124 *25:164 *25:181 6
125 *25:163 *712:CP 6
126 *25:162 *25:179 3.04
127 *25:161 *713:CP 6
128 *25:160 *727:CP 6
129 *25:159 *703:CP 6
130 *25:159 *25:175 0.192857
131 *25:158 *25:174 6
132 *25:153 *25:173 1.92
133 *25:152 *25:172 6
134 *25:150 *632:CP 6
135 *25:149 *514:CP 1.94783
136 *25:148 *25:169 6
137 *25:148 *25:168 0.96
138 *25:147 *25:167 0.16
139 *25:146 *25:166 6
140 *25:144 *25:165 6
141 *25:144 *25:164 5.76
142 *25:143 *25:163 0.16
143 *25:142 *25:162 6
144 *25:142 *25:161 1.28